
---------- Begin Simulation Statistics ----------
sim_seconds                                  0.001584                       # Number of seconds simulated
sim_ticks                                  1583746000                       # Number of ticks simulated
final_tick                                 1583746000                       # Number of ticks from beginning of simulation (restored from checkpoints and never reset)
sim_freq                                 1000000000000                       # Frequency of simulated ticks
host_inst_rate                                  36885                       # Simulator instruction rate (inst/s)
host_op_rate                                    63680                       # Simulator op (including micro ops) rate (op/s)
host_tick_rate                               30120681                       # Simulator tick rate (ticks/s)
host_mem_usage                                8552952                       # Number of bytes of host memory used
host_seconds                                    52.58                       # Real time elapsed on the host
sim_insts                                     1939415                       # Number of instructions simulated
sim_ops                                       3348316                       # Number of ops (including micro ops) simulated
system.voltage_domain.voltage                       1                       # Voltage in Volts
system.clk_domain.clock                          1000                       # Clock period in ticks
system.mem_ctrls0.pwrStateResidencyTicks::UNDEFINED   1583746000                       # Cumulative time (in ticks) in various power states
system.mem_ctrls0.bytes_read::.cpu.inst         52352                       # Number of bytes read from this memory
system.mem_ctrls0.bytes_read::.cpu.data        208384                       # Number of bytes read from this memory
system.mem_ctrls0.bytes_read::.l2.prefetcher        88960                       # Number of bytes read from this memory
system.mem_ctrls0.bytes_read::total            349696                       # Number of bytes read from this memory
system.mem_ctrls0.bytes_inst_read::.cpu.inst        52352                       # Number of instructions bytes read from this memory
system.mem_ctrls0.bytes_inst_read::total        52352                       # Number of instructions bytes read from this memory
system.mem_ctrls0.num_reads::.cpu.inst            818                       # Number of read requests responded to by this memory
system.mem_ctrls0.num_reads::.cpu.data           3256                       # Number of read requests responded to by this memory
system.mem_ctrls0.num_reads::.l2.prefetcher         1390                       # Number of read requests responded to by this memory
system.mem_ctrls0.num_reads::total               5464                       # Number of read requests responded to by this memory
system.mem_ctrls0.bw_read::.cpu.inst         33055806                       # Total read bandwidth from this memory (bytes/s)
system.mem_ctrls0.bw_read::.cpu.data        131576654                       # Total read bandwidth from this memory (bytes/s)
system.mem_ctrls0.bw_read::.l2.prefetcher     56170623                       # Total read bandwidth from this memory (bytes/s)
system.mem_ctrls0.bw_read::total            220803083                       # Total read bandwidth from this memory (bytes/s)
system.mem_ctrls0.bw_inst_read::.cpu.inst     33055806                       # Instruction read bandwidth from this memory (bytes/s)
system.mem_ctrls0.bw_inst_read::total        33055806                       # Instruction read bandwidth from this memory (bytes/s)
system.mem_ctrls0.bw_total::.cpu.inst        33055806                       # Total bandwidth to/from this memory (bytes/s)
system.mem_ctrls0.bw_total::.cpu.data       131576654                       # Total bandwidth to/from this memory (bytes/s)
system.mem_ctrls0.bw_total::.l2.prefetcher     56170623                       # Total bandwidth to/from this memory (bytes/s)
system.mem_ctrls0.bw_total::total           220803083                       # Total bandwidth to/from this memory (bytes/s)
system.mem_ctrls0.avgPriority_.cpu.inst::samples       818.00                       # Average QoS priority value for accepted requests
system.mem_ctrls0.avgPriority_.cpu.data::samples      3256.00                       # Average QoS priority value for accepted requests
system.mem_ctrls0.avgPriority_.l2.prefetcher::samples      1390.00                       # Average QoS priority value for accepted requests
system.mem_ctrls0.priorityMinLatency     0.000000017492                       # per QoS priority minimum request to response latency (s)
system.mem_ctrls0.priorityMaxLatency     0.000001418485                       # per QoS priority maximum request to response latency (s)
system.mem_ctrls0.numReadWriteTurnArounds            0                       # Number of turnarounds from READ to WRITE
system.mem_ctrls0.numWriteReadTurnArounds            0                       # Number of turnarounds from WRITE to READ
system.mem_ctrls0.numStayReadState              11292                       # Number of times bus staying in READ state
system.mem_ctrls0.numStayWriteState                 0                       # Number of times bus staying in WRITE state
system.mem_ctrls0.readReqs                       5464                       # Number of read requests accepted
system.mem_ctrls0.writeReqs                         0                       # Number of write requests accepted
system.mem_ctrls0.readBursts                     5464                       # Number of DRAM read bursts, including those serviced by the write queue
system.mem_ctrls0.writeBursts                       0                       # Number of DRAM write bursts, including those merged in the write queue
system.mem_ctrls0.bytesReadDRAM                349696                       # Total number of bytes read from DRAM
system.mem_ctrls0.bytesReadWrQ                      0                       # Total number of bytes read from write queue
system.mem_ctrls0.bytesWritten                      0                       # Total number of bytes written to DRAM
system.mem_ctrls0.bytesReadSys                 349696                       # Total read bytes from the system interface side
system.mem_ctrls0.bytesWrittenSys                   0                       # Total written bytes from the system interface side
system.mem_ctrls0.servicedByWrQ                     0                       # Number of DRAM read bursts serviced by the write queue
system.mem_ctrls0.mergedWrBursts                    0                       # Number of DRAM write bursts merged with an existing one
system.mem_ctrls0.neitherReadNorWriteReqs            0                       # Number of requests that are neither read nor write
system.mem_ctrls0.perBankRdBursts::0              176                       # Per bank write bursts
system.mem_ctrls0.perBankRdBursts::1              237                       # Per bank write bursts
system.mem_ctrls0.perBankRdBursts::2              281                       # Per bank write bursts
system.mem_ctrls0.perBankRdBursts::3              265                       # Per bank write bursts
system.mem_ctrls0.perBankRdBursts::4              289                       # Per bank write bursts
system.mem_ctrls0.perBankRdBursts::5              286                       # Per bank write bursts
system.mem_ctrls0.perBankRdBursts::6              138                       # Per bank write bursts
system.mem_ctrls0.perBankRdBursts::7              232                       # Per bank write bursts
system.mem_ctrls0.perBankRdBursts::8              196                       # Per bank write bursts
system.mem_ctrls0.perBankRdBursts::9              224                       # Per bank write bursts
system.mem_ctrls0.perBankRdBursts::10             110                       # Per bank write bursts
system.mem_ctrls0.perBankRdBursts::11              83                       # Per bank write bursts
system.mem_ctrls0.perBankRdBursts::12             117                       # Per bank write bursts
system.mem_ctrls0.perBankRdBursts::13              70                       # Per bank write bursts
system.mem_ctrls0.perBankRdBursts::14              48                       # Per bank write bursts
system.mem_ctrls0.perBankRdBursts::15              19                       # Per bank write bursts
system.mem_ctrls0.perBankRdBursts::16              51                       # Per bank write bursts
system.mem_ctrls0.perBankRdBursts::17              56                       # Per bank write bursts
system.mem_ctrls0.perBankRdBursts::18             123                       # Per bank write bursts
system.mem_ctrls0.perBankRdBursts::19             134                       # Per bank write bursts
system.mem_ctrls0.perBankRdBursts::20             131                       # Per bank write bursts
system.mem_ctrls0.perBankRdBursts::21             131                       # Per bank write bursts
system.mem_ctrls0.perBankRdBursts::22             132                       # Per bank write bursts
system.mem_ctrls0.perBankRdBursts::23             221                       # Per bank write bursts
system.mem_ctrls0.perBankRdBursts::24             273                       # Per bank write bursts
system.mem_ctrls0.perBankRdBursts::25             270                       # Per bank write bursts
system.mem_ctrls0.perBankRdBursts::26             223                       # Per bank write bursts
system.mem_ctrls0.perBankRdBursts::27             246                       # Per bank write bursts
system.mem_ctrls0.perBankRdBursts::28             248                       # Per bank write bursts
system.mem_ctrls0.perBankRdBursts::29              96                       # Per bank write bursts
system.mem_ctrls0.perBankRdBursts::30             177                       # Per bank write bursts
system.mem_ctrls0.perBankRdBursts::31             181                       # Per bank write bursts
system.mem_ctrls0.perBankWrBursts::0                0                       # Per bank write bursts
system.mem_ctrls0.perBankWrBursts::1                0                       # Per bank write bursts
system.mem_ctrls0.perBankWrBursts::2                0                       # Per bank write bursts
system.mem_ctrls0.perBankWrBursts::3                0                       # Per bank write bursts
system.mem_ctrls0.perBankWrBursts::4                0                       # Per bank write bursts
system.mem_ctrls0.perBankWrBursts::5                0                       # Per bank write bursts
system.mem_ctrls0.perBankWrBursts::6                0                       # Per bank write bursts
system.mem_ctrls0.perBankWrBursts::7                0                       # Per bank write bursts
system.mem_ctrls0.perBankWrBursts::8                0                       # Per bank write bursts
system.mem_ctrls0.perBankWrBursts::9                0                       # Per bank write bursts
system.mem_ctrls0.perBankWrBursts::10               0                       # Per bank write bursts
system.mem_ctrls0.perBankWrBursts::11               0                       # Per bank write bursts
system.mem_ctrls0.perBankWrBursts::12               0                       # Per bank write bursts
system.mem_ctrls0.perBankWrBursts::13               0                       # Per bank write bursts
system.mem_ctrls0.perBankWrBursts::14               0                       # Per bank write bursts
system.mem_ctrls0.perBankWrBursts::15               0                       # Per bank write bursts
system.mem_ctrls0.perBankWrBursts::16               0                       # Per bank write bursts
system.mem_ctrls0.perBankWrBursts::17               0                       # Per bank write bursts
system.mem_ctrls0.perBankWrBursts::18               0                       # Per bank write bursts
system.mem_ctrls0.perBankWrBursts::19               0                       # Per bank write bursts
system.mem_ctrls0.perBankWrBursts::20               0                       # Per bank write bursts
system.mem_ctrls0.perBankWrBursts::21               0                       # Per bank write bursts
system.mem_ctrls0.perBankWrBursts::22               0                       # Per bank write bursts
system.mem_ctrls0.perBankWrBursts::23               0                       # Per bank write bursts
system.mem_ctrls0.perBankWrBursts::24               0                       # Per bank write bursts
system.mem_ctrls0.perBankWrBursts::25               0                       # Per bank write bursts
system.mem_ctrls0.perBankWrBursts::26               0                       # Per bank write bursts
system.mem_ctrls0.perBankWrBursts::27               0                       # Per bank write bursts
system.mem_ctrls0.perBankWrBursts::28               0                       # Per bank write bursts
system.mem_ctrls0.perBankWrBursts::29               0                       # Per bank write bursts
system.mem_ctrls0.perBankWrBursts::30               0                       # Per bank write bursts
system.mem_ctrls0.perBankWrBursts::31               0                       # Per bank write bursts
system.mem_ctrls0.numRdRetry                        0                       # Number of times read queue was full causing retry
system.mem_ctrls0.numWrRetry                        0                       # Number of times write queue was full causing retry
system.mem_ctrls0.totGap                   1583381000                       # Total gap between requests
system.mem_ctrls0.readPktSize::0                    0                       # Read request sizes (log2)
system.mem_ctrls0.readPktSize::1                    0                       # Read request sizes (log2)
system.mem_ctrls0.readPktSize::2                    0                       # Read request sizes (log2)
system.mem_ctrls0.readPktSize::3                    0                       # Read request sizes (log2)
system.mem_ctrls0.readPktSize::4                    0                       # Read request sizes (log2)
system.mem_ctrls0.readPktSize::5                    0                       # Read request sizes (log2)
system.mem_ctrls0.readPktSize::6                 5464                       # Read request sizes (log2)
system.mem_ctrls0.writePktSize::0                   0                       # Write request sizes (log2)
system.mem_ctrls0.writePktSize::1                   0                       # Write request sizes (log2)
system.mem_ctrls0.writePktSize::2                   0                       # Write request sizes (log2)
system.mem_ctrls0.writePktSize::3                   0                       # Write request sizes (log2)
system.mem_ctrls0.writePktSize::4                   0                       # Write request sizes (log2)
system.mem_ctrls0.writePktSize::5                   0                       # Write request sizes (log2)
system.mem_ctrls0.writePktSize::6                   0                       # Write request sizes (log2)
system.mem_ctrls0.rdQLenPdf::0                   4351                       # What read queue length does an incoming req see
system.mem_ctrls0.rdQLenPdf::1                    648                       # What read queue length does an incoming req see
system.mem_ctrls0.rdQLenPdf::2                    210                       # What read queue length does an incoming req see
system.mem_ctrls0.rdQLenPdf::3                    141                       # What read queue length does an incoming req see
system.mem_ctrls0.rdQLenPdf::4                     75                       # What read queue length does an incoming req see
system.mem_ctrls0.rdQLenPdf::5                     27                       # What read queue length does an incoming req see
system.mem_ctrls0.rdQLenPdf::6                     10                       # What read queue length does an incoming req see
system.mem_ctrls0.rdQLenPdf::7                      1                       # What read queue length does an incoming req see
system.mem_ctrls0.rdQLenPdf::8                      1                       # What read queue length does an incoming req see
system.mem_ctrls0.rdQLenPdf::9                      0                       # What read queue length does an incoming req see
system.mem_ctrls0.rdQLenPdf::10                     0                       # What read queue length does an incoming req see
system.mem_ctrls0.rdQLenPdf::11                     0                       # What read queue length does an incoming req see
system.mem_ctrls0.rdQLenPdf::12                     0                       # What read queue length does an incoming req see
system.mem_ctrls0.rdQLenPdf::13                     0                       # What read queue length does an incoming req see
system.mem_ctrls0.rdQLenPdf::14                     0                       # What read queue length does an incoming req see
system.mem_ctrls0.rdQLenPdf::15                     0                       # What read queue length does an incoming req see
system.mem_ctrls0.rdQLenPdf::16                     0                       # What read queue length does an incoming req see
system.mem_ctrls0.rdQLenPdf::17                     0                       # What read queue length does an incoming req see
system.mem_ctrls0.rdQLenPdf::18                     0                       # What read queue length does an incoming req see
system.mem_ctrls0.rdQLenPdf::19                     0                       # What read queue length does an incoming req see
system.mem_ctrls0.rdQLenPdf::20                     0                       # What read queue length does an incoming req see
system.mem_ctrls0.rdQLenPdf::21                     0                       # What read queue length does an incoming req see
system.mem_ctrls0.rdQLenPdf::22                     0                       # What read queue length does an incoming req see
system.mem_ctrls0.rdQLenPdf::23                     0                       # What read queue length does an incoming req see
system.mem_ctrls0.rdQLenPdf::24                     0                       # What read queue length does an incoming req see
system.mem_ctrls0.rdQLenPdf::25                     0                       # What read queue length does an incoming req see
system.mem_ctrls0.rdQLenPdf::26                     0                       # What read queue length does an incoming req see
system.mem_ctrls0.rdQLenPdf::27                     0                       # What read queue length does an incoming req see
system.mem_ctrls0.rdQLenPdf::28                     0                       # What read queue length does an incoming req see
system.mem_ctrls0.rdQLenPdf::29                     0                       # What read queue length does an incoming req see
system.mem_ctrls0.rdQLenPdf::30                     0                       # What read queue length does an incoming req see
system.mem_ctrls0.rdQLenPdf::31                     0                       # What read queue length does an incoming req see
system.mem_ctrls0.rdQLenPdf::32                     0                       # What read queue length does an incoming req see
system.mem_ctrls0.rdQLenPdf::33                     0                       # What read queue length does an incoming req see
system.mem_ctrls0.rdQLenPdf::34                     0                       # What read queue length does an incoming req see
system.mem_ctrls0.rdQLenPdf::35                     0                       # What read queue length does an incoming req see
system.mem_ctrls0.rdQLenPdf::36                     0                       # What read queue length does an incoming req see
system.mem_ctrls0.rdQLenPdf::37                     0                       # What read queue length does an incoming req see
system.mem_ctrls0.rdQLenPdf::38                     0                       # What read queue length does an incoming req see
system.mem_ctrls0.rdQLenPdf::39                     0                       # What read queue length does an incoming req see
system.mem_ctrls0.rdQLenPdf::40                     0                       # What read queue length does an incoming req see
system.mem_ctrls0.rdQLenPdf::41                     0                       # What read queue length does an incoming req see
system.mem_ctrls0.rdQLenPdf::42                     0                       # What read queue length does an incoming req see
system.mem_ctrls0.rdQLenPdf::43                     0                       # What read queue length does an incoming req see
system.mem_ctrls0.rdQLenPdf::44                     0                       # What read queue length does an incoming req see
system.mem_ctrls0.rdQLenPdf::45                     0                       # What read queue length does an incoming req see
system.mem_ctrls0.rdQLenPdf::46                     0                       # What read queue length does an incoming req see
system.mem_ctrls0.rdQLenPdf::47                     0                       # What read queue length does an incoming req see
system.mem_ctrls0.rdQLenPdf::48                     0                       # What read queue length does an incoming req see
system.mem_ctrls0.rdQLenPdf::49                     0                       # What read queue length does an incoming req see
system.mem_ctrls0.rdQLenPdf::50                     0                       # What read queue length does an incoming req see
system.mem_ctrls0.rdQLenPdf::51                     0                       # What read queue length does an incoming req see
system.mem_ctrls0.rdQLenPdf::52                     0                       # What read queue length does an incoming req see
system.mem_ctrls0.rdQLenPdf::53                     0                       # What read queue length does an incoming req see
system.mem_ctrls0.rdQLenPdf::54                     0                       # What read queue length does an incoming req see
system.mem_ctrls0.rdQLenPdf::55                     0                       # What read queue length does an incoming req see
system.mem_ctrls0.rdQLenPdf::56                     0                       # What read queue length does an incoming req see
system.mem_ctrls0.rdQLenPdf::57                     0                       # What read queue length does an incoming req see
system.mem_ctrls0.rdQLenPdf::58                     0                       # What read queue length does an incoming req see
system.mem_ctrls0.rdQLenPdf::59                     0                       # What read queue length does an incoming req see
system.mem_ctrls0.rdQLenPdf::60                     0                       # What read queue length does an incoming req see
system.mem_ctrls0.rdQLenPdf::61                     0                       # What read queue length does an incoming req see
system.mem_ctrls0.rdQLenPdf::62                     0                       # What read queue length does an incoming req see
system.mem_ctrls0.rdQLenPdf::63                     0                       # What read queue length does an incoming req see
system.mem_ctrls0.wrQLenPdf::0                      0                       # What write queue length does an incoming req see
system.mem_ctrls0.wrQLenPdf::1                      0                       # What write queue length does an incoming req see
system.mem_ctrls0.wrQLenPdf::2                      0                       # What write queue length does an incoming req see
system.mem_ctrls0.wrQLenPdf::3                      0                       # What write queue length does an incoming req see
system.mem_ctrls0.wrQLenPdf::4                      0                       # What write queue length does an incoming req see
system.mem_ctrls0.wrQLenPdf::5                      0                       # What write queue length does an incoming req see
system.mem_ctrls0.wrQLenPdf::6                      0                       # What write queue length does an incoming req see
system.mem_ctrls0.wrQLenPdf::7                      0                       # What write queue length does an incoming req see
system.mem_ctrls0.wrQLenPdf::8                      0                       # What write queue length does an incoming req see
system.mem_ctrls0.wrQLenPdf::9                      0                       # What write queue length does an incoming req see
system.mem_ctrls0.wrQLenPdf::10                     0                       # What write queue length does an incoming req see
system.mem_ctrls0.wrQLenPdf::11                     0                       # What write queue length does an incoming req see
system.mem_ctrls0.wrQLenPdf::12                     0                       # What write queue length does an incoming req see
system.mem_ctrls0.wrQLenPdf::13                     0                       # What write queue length does an incoming req see
system.mem_ctrls0.wrQLenPdf::14                     0                       # What write queue length does an incoming req see
system.mem_ctrls0.wrQLenPdf::15                     0                       # What write queue length does an incoming req see
system.mem_ctrls0.wrQLenPdf::16                     0                       # What write queue length does an incoming req see
system.mem_ctrls0.wrQLenPdf::17                     0                       # What write queue length does an incoming req see
system.mem_ctrls0.wrQLenPdf::18                     0                       # What write queue length does an incoming req see
system.mem_ctrls0.wrQLenPdf::19                     0                       # What write queue length does an incoming req see
system.mem_ctrls0.wrQLenPdf::20                     0                       # What write queue length does an incoming req see
system.mem_ctrls0.wrQLenPdf::21                     0                       # What write queue length does an incoming req see
system.mem_ctrls0.wrQLenPdf::22                     0                       # What write queue length does an incoming req see
system.mem_ctrls0.wrQLenPdf::23                     0                       # What write queue length does an incoming req see
system.mem_ctrls0.wrQLenPdf::24                     0                       # What write queue length does an incoming req see
system.mem_ctrls0.wrQLenPdf::25                     0                       # What write queue length does an incoming req see
system.mem_ctrls0.wrQLenPdf::26                     0                       # What write queue length does an incoming req see
system.mem_ctrls0.wrQLenPdf::27                     0                       # What write queue length does an incoming req see
system.mem_ctrls0.wrQLenPdf::28                     0                       # What write queue length does an incoming req see
system.mem_ctrls0.wrQLenPdf::29                     0                       # What write queue length does an incoming req see
system.mem_ctrls0.wrQLenPdf::30                     0                       # What write queue length does an incoming req see
system.mem_ctrls0.wrQLenPdf::31                     0                       # What write queue length does an incoming req see
system.mem_ctrls0.wrQLenPdf::32                     0                       # What write queue length does an incoming req see
system.mem_ctrls0.wrQLenPdf::33                     0                       # What write queue length does an incoming req see
system.mem_ctrls0.wrQLenPdf::34                     0                       # What write queue length does an incoming req see
system.mem_ctrls0.wrQLenPdf::35                     0                       # What write queue length does an incoming req see
system.mem_ctrls0.wrQLenPdf::36                     0                       # What write queue length does an incoming req see
system.mem_ctrls0.wrQLenPdf::37                     0                       # What write queue length does an incoming req see
system.mem_ctrls0.wrQLenPdf::38                     0                       # What write queue length does an incoming req see
system.mem_ctrls0.wrQLenPdf::39                     0                       # What write queue length does an incoming req see
system.mem_ctrls0.wrQLenPdf::40                     0                       # What write queue length does an incoming req see
system.mem_ctrls0.wrQLenPdf::41                     0                       # What write queue length does an incoming req see
system.mem_ctrls0.wrQLenPdf::42                     0                       # What write queue length does an incoming req see
system.mem_ctrls0.wrQLenPdf::43                     0                       # What write queue length does an incoming req see
system.mem_ctrls0.wrQLenPdf::44                     0                       # What write queue length does an incoming req see
system.mem_ctrls0.wrQLenPdf::45                     0                       # What write queue length does an incoming req see
system.mem_ctrls0.wrQLenPdf::46                     0                       # What write queue length does an incoming req see
system.mem_ctrls0.wrQLenPdf::47                     0                       # What write queue length does an incoming req see
system.mem_ctrls0.wrQLenPdf::48                     0                       # What write queue length does an incoming req see
system.mem_ctrls0.wrQLenPdf::49                     0                       # What write queue length does an incoming req see
system.mem_ctrls0.wrQLenPdf::50                     0                       # What write queue length does an incoming req see
system.mem_ctrls0.wrQLenPdf::51                     0                       # What write queue length does an incoming req see
system.mem_ctrls0.wrQLenPdf::52                     0                       # What write queue length does an incoming req see
system.mem_ctrls0.wrQLenPdf::53                     0                       # What write queue length does an incoming req see
system.mem_ctrls0.wrQLenPdf::54                     0                       # What write queue length does an incoming req see
system.mem_ctrls0.wrQLenPdf::55                     0                       # What write queue length does an incoming req see
system.mem_ctrls0.wrQLenPdf::56                     0                       # What write queue length does an incoming req see
system.mem_ctrls0.wrQLenPdf::57                     0                       # What write queue length does an incoming req see
system.mem_ctrls0.wrQLenPdf::58                     0                       # What write queue length does an incoming req see
system.mem_ctrls0.wrQLenPdf::59                     0                       # What write queue length does an incoming req see
system.mem_ctrls0.wrQLenPdf::60                     0                       # What write queue length does an incoming req see
system.mem_ctrls0.wrQLenPdf::61                     0                       # What write queue length does an incoming req see
system.mem_ctrls0.wrQLenPdf::62                     0                       # What write queue length does an incoming req see
system.mem_ctrls0.wrQLenPdf::63                     0                       # What write queue length does an incoming req see
system.mem_ctrls0.wrQLenPdf::64                     0                       # What write queue length does an incoming req see
system.mem_ctrls0.wrQLenPdf::65                     0                       # What write queue length does an incoming req see
system.mem_ctrls0.wrQLenPdf::66                     0                       # What write queue length does an incoming req see
system.mem_ctrls0.wrQLenPdf::67                     0                       # What write queue length does an incoming req see
system.mem_ctrls0.wrQLenPdf::68                     0                       # What write queue length does an incoming req see
system.mem_ctrls0.wrQLenPdf::69                     0                       # What write queue length does an incoming req see
system.mem_ctrls0.wrQLenPdf::70                     0                       # What write queue length does an incoming req see
system.mem_ctrls0.wrQLenPdf::71                     0                       # What write queue length does an incoming req see
system.mem_ctrls0.wrQLenPdf::72                     0                       # What write queue length does an incoming req see
system.mem_ctrls0.wrQLenPdf::73                     0                       # What write queue length does an incoming req see
system.mem_ctrls0.wrQLenPdf::74                     0                       # What write queue length does an incoming req see
system.mem_ctrls0.wrQLenPdf::75                     0                       # What write queue length does an incoming req see
system.mem_ctrls0.wrQLenPdf::76                     0                       # What write queue length does an incoming req see
system.mem_ctrls0.wrQLenPdf::77                     0                       # What write queue length does an incoming req see
system.mem_ctrls0.wrQLenPdf::78                     0                       # What write queue length does an incoming req see
system.mem_ctrls0.wrQLenPdf::79                     0                       # What write queue length does an incoming req see
system.mem_ctrls0.wrQLenPdf::80                     0                       # What write queue length does an incoming req see
system.mem_ctrls0.wrQLenPdf::81                     0                       # What write queue length does an incoming req see
system.mem_ctrls0.wrQLenPdf::82                     0                       # What write queue length does an incoming req see
system.mem_ctrls0.wrQLenPdf::83                     0                       # What write queue length does an incoming req see
system.mem_ctrls0.wrQLenPdf::84                     0                       # What write queue length does an incoming req see
system.mem_ctrls0.wrQLenPdf::85                     0                       # What write queue length does an incoming req see
system.mem_ctrls0.wrQLenPdf::86                     0                       # What write queue length does an incoming req see
system.mem_ctrls0.wrQLenPdf::87                     0                       # What write queue length does an incoming req see
system.mem_ctrls0.wrQLenPdf::88                     0                       # What write queue length does an incoming req see
system.mem_ctrls0.wrQLenPdf::89                     0                       # What write queue length does an incoming req see
system.mem_ctrls0.wrQLenPdf::90                     0                       # What write queue length does an incoming req see
system.mem_ctrls0.wrQLenPdf::91                     0                       # What write queue length does an incoming req see
system.mem_ctrls0.wrQLenPdf::92                     0                       # What write queue length does an incoming req see
system.mem_ctrls0.wrQLenPdf::93                     0                       # What write queue length does an incoming req see
system.mem_ctrls0.wrQLenPdf::94                     0                       # What write queue length does an incoming req see
system.mem_ctrls0.wrQLenPdf::95                     0                       # What write queue length does an incoming req see
system.mem_ctrls0.wrQLenPdf::96                     0                       # What write queue length does an incoming req see
system.mem_ctrls0.wrQLenPdf::97                     0                       # What write queue length does an incoming req see
system.mem_ctrls0.wrQLenPdf::98                     0                       # What write queue length does an incoming req see
system.mem_ctrls0.wrQLenPdf::99                     0                       # What write queue length does an incoming req see
system.mem_ctrls0.wrQLenPdf::100                    0                       # What write queue length does an incoming req see
system.mem_ctrls0.wrQLenPdf::101                    0                       # What write queue length does an incoming req see
system.mem_ctrls0.wrQLenPdf::102                    0                       # What write queue length does an incoming req see
system.mem_ctrls0.wrQLenPdf::103                    0                       # What write queue length does an incoming req see
system.mem_ctrls0.wrQLenPdf::104                    0                       # What write queue length does an incoming req see
system.mem_ctrls0.wrQLenPdf::105                    0                       # What write queue length does an incoming req see
system.mem_ctrls0.wrQLenPdf::106                    0                       # What write queue length does an incoming req see
system.mem_ctrls0.wrQLenPdf::107                    0                       # What write queue length does an incoming req see
system.mem_ctrls0.wrQLenPdf::108                    0                       # What write queue length does an incoming req see
system.mem_ctrls0.wrQLenPdf::109                    0                       # What write queue length does an incoming req see
system.mem_ctrls0.wrQLenPdf::110                    0                       # What write queue length does an incoming req see
system.mem_ctrls0.wrQLenPdf::111                    0                       # What write queue length does an incoming req see
system.mem_ctrls0.wrQLenPdf::112                    0                       # What write queue length does an incoming req see
system.mem_ctrls0.wrQLenPdf::113                    0                       # What write queue length does an incoming req see
system.mem_ctrls0.wrQLenPdf::114                    0                       # What write queue length does an incoming req see
system.mem_ctrls0.wrQLenPdf::115                    0                       # What write queue length does an incoming req see
system.mem_ctrls0.wrQLenPdf::116                    0                       # What write queue length does an incoming req see
system.mem_ctrls0.wrQLenPdf::117                    0                       # What write queue length does an incoming req see
system.mem_ctrls0.wrQLenPdf::118                    0                       # What write queue length does an incoming req see
system.mem_ctrls0.wrQLenPdf::119                    0                       # What write queue length does an incoming req see
system.mem_ctrls0.wrQLenPdf::120                    0                       # What write queue length does an incoming req see
system.mem_ctrls0.wrQLenPdf::121                    0                       # What write queue length does an incoming req see
system.mem_ctrls0.wrQLenPdf::122                    0                       # What write queue length does an incoming req see
system.mem_ctrls0.wrQLenPdf::123                    0                       # What write queue length does an incoming req see
system.mem_ctrls0.wrQLenPdf::124                    0                       # What write queue length does an incoming req see
system.mem_ctrls0.wrQLenPdf::125                    0                       # What write queue length does an incoming req see
system.mem_ctrls0.wrQLenPdf::126                    0                       # What write queue length does an incoming req see
system.mem_ctrls0.wrQLenPdf::127                    0                       # What write queue length does an incoming req see
system.mem_ctrls0.bytesPerActivate::samples         1667                       # Bytes accessed per row activation
system.mem_ctrls0.bytesPerActivate::mean   209.430114                       # Bytes accessed per row activation
system.mem_ctrls0.bytesPerActivate::gmean   135.979704                       # Bytes accessed per row activation
system.mem_ctrls0.bytesPerActivate::stdev   242.163179                       # Bytes accessed per row activation
system.mem_ctrls0.bytesPerActivate::0-127          749     44.93%     44.93% # Bytes accessed per row activation
system.mem_ctrls0.bytesPerActivate::128-255          491     29.45%     74.39% # Bytes accessed per row activation
system.mem_ctrls0.bytesPerActivate::256-383          163      9.78%     84.16% # Bytes accessed per row activation
system.mem_ctrls0.bytesPerActivate::384-511           90      5.40%     89.56% # Bytes accessed per row activation
system.mem_ctrls0.bytesPerActivate::512-639           43      2.58%     92.14% # Bytes accessed per row activation
system.mem_ctrls0.bytesPerActivate::640-767           23      1.38%     93.52% # Bytes accessed per row activation
system.mem_ctrls0.bytesPerActivate::768-895           13      0.78%     94.30% # Bytes accessed per row activation
system.mem_ctrls0.bytesPerActivate::896-1023           14      0.84%     95.14% # Bytes accessed per row activation
system.mem_ctrls0.bytesPerActivate::1024-1151           81      4.86%    100.00% # Bytes accessed per row activation
system.mem_ctrls0.bytesPerActivate::total         1667                       # Bytes accessed per row activation
system.mem_ctrls0.masterReadBytes::.cpu.inst        52352                       # Per-master bytes read from memory
system.mem_ctrls0.masterReadBytes::.cpu.data       208384                       # Per-master bytes read from memory
system.mem_ctrls0.masterReadBytes::.l2.prefetcher        88960                       # Per-master bytes read from memory
system.mem_ctrls0.masterReadRate::.cpu.inst 33055805.665807522833                       # Per-master bytes read from memory rate (Bytes/sec)
system.mem_ctrls0.masterReadRate::.cpu.data 131576654.337248519063                       # Per-master bytes read from memory rate (Bytes/sec)
system.mem_ctrls0.masterReadRate::.l2.prefetcher 56170623.319648474455                       # Per-master bytes read from memory rate (Bytes/sec)
system.mem_ctrls0.masterReadAccesses::.cpu.inst          818                       # Per-master read serviced memory accesses
system.mem_ctrls0.masterReadAccesses::.cpu.data         3256                       # Per-master read serviced memory accesses
system.mem_ctrls0.masterReadAccesses::.l2.prefetcher         1390                       # Per-master read serviced memory accesses
system.mem_ctrls0.masterReadTotalLat::.cpu.inst     27015046                       # Per-master read total memory access latency
system.mem_ctrls0.masterReadTotalLat::.cpu.data    126818013                       # Per-master read total memory access latency
system.mem_ctrls0.masterReadTotalLat::.l2.prefetcher     52599058                       # Per-master read total memory access latency
system.mem_ctrls0.masterReadAvgLat::.cpu.inst     33025.73                       # Per-master read average memory access latency
system.mem_ctrls0.masterReadAvgLat::.cpu.data     38949.02                       # Per-master read average memory access latency
system.mem_ctrls0.masterReadAvgLat::.l2.prefetcher     37841.05                       # Per-master read average memory access latency
system.mem_ctrls0.totQLat                   110855829                       # Total ticks spent queuing
system.mem_ctrls0.totMemAccLat              206432117                       # Total ticks spent from burst creation until serviced by the DRAM
system.mem_ctrls0.totBusLat                  18206048                       # Total ticks spent in databus transfers
system.mem_ctrls0.avgQLat                    20288.40                       # Average queueing delay per DRAM burst
system.mem_ctrls0.avgBusLat                   3332.00                       # Average bus latency per DRAM burst
system.mem_ctrls0.avgMemAccLat               37780.40                       # Average memory access latency per DRAM burst
system.mem_ctrls0.avgRdBW                      220.80                       # Average DRAM read bandwidth in MiByte/s
system.mem_ctrls0.avgWrBW                        0.00                       # Average achieved write bandwidth in MiByte/s
system.mem_ctrls0.avgRdBWSys                   220.80                       # Average system read bandwidth in MiByte/s
system.mem_ctrls0.avgWrBWSys                     0.00                       # Average system write bandwidth in MiByte/s
system.mem_ctrls0.peakBW                     19207.00                       # Theoretical peak bandwidth in MiByte/s
system.mem_ctrls0.busUtil                        1.15                       # Data bus utilization in percentage
system.mem_ctrls0.busUtilRead                    1.15                       # Data bus utilization in percentage for reads
system.mem_ctrls0.busUtilWrite                   0.00                       # Data bus utilization in percentage for writes
system.mem_ctrls0.avgRdQLen                      1.16                       # Average read queue length when enqueuing
system.mem_ctrls0.avgWrQLen                      0.00                       # Average write queue length when enqueuing
system.mem_ctrls0.readRowHits                    3793                       # Number of row buffer hits during reads
system.mem_ctrls0.writeRowHits                      0                       # Number of row buffer hits during writes
system.mem_ctrls0.readRowHitRate                69.42                       # Row buffer hit rate for reads
system.mem_ctrls0.writeRowHitRate                 nan                       # Row buffer hit rate for writes
system.mem_ctrls0.avgGap                    289784.22                       # Average gap between requests
system.mem_ctrls0.pageHitRate                   69.42                       # Row buffer hit rate, read and write combined
system.mem_ctrls0_0.actEnergy            2279807.712000                       # Energy for activate commands per rank (pJ)
system.mem_ctrls0_0.preEnergy            3014389.761600                       # Energy for precharge commands per rank (pJ)
system.mem_ctrls0_0.readEnergy           11655703.852800                       # Energy for read commands per rank (pJ)
system.mem_ctrls0_0.writeEnergy                     0                       # Energy for write commands per rank (pJ)
system.mem_ctrls0_0.refreshEnergy        275690147.812801                       # Energy for refresh commands per rank (pJ)
system.mem_ctrls0_0.actBackEnergy        118481700.355200                       # Energy for active background per rank (pJ)
system.mem_ctrls0_0.preBackEnergy        5447612.083200                       # Energy for precharge background per rank (pJ)
system.mem_ctrls0_0.actPowerDownEnergy   757666220.236800                       # Energy for active power-down per rank (pJ)
system.mem_ctrls0_0.prePowerDownEnergy   83857643.520000                       # Energy for precharge power-down per rank (pJ)
system.mem_ctrls0_0.selfRefreshEnergy    20896805.932800                       # Energy for self refresh per rank (pJ)
system.mem_ctrls0_0.totalEnergy          1278990031.267200                       # Total energy per rank (pJ)
system.mem_ctrls0_0.averagePower           807.572699                       # Core power per rank (mW)
system.mem_ctrls0_0.totalIdleTime          1435734868                       # Total Idle time Per DRAM Rank
system.mem_ctrls0_0.memoryStateTime::IDLE      2697000                       # Time in different power states
system.mem_ctrls0_0.memoryStateTime::REF     69650000                       # Time in different power states
system.mem_ctrls0_0.memoryStateTime::SREF     28061800                       # Time in different power states
system.mem_ctrls0_0.memoryStateTime::PRE_PDN    174705843                       # Time in different power states
system.mem_ctrls0_0.memoryStateTime::ACT     75459624                       # Time in different power states
system.mem_ctrls0_0.memoryStateTime::ACT_PDN   1233171733                       # Time in different power states
system.mem_ctrls0_1.actEnergy            2931626.880000                       # Energy for activate commands per rank (pJ)
system.mem_ctrls0_1.preEnergy            3897560.352000                       # Energy for precharge commands per rank (pJ)
system.mem_ctrls0_1.readEnergy           11327611.142400                       # Energy for read commands per rank (pJ)
system.mem_ctrls0_1.writeEnergy                     0                       # Energy for write commands per rank (pJ)
system.mem_ctrls0_1.refreshEnergy        263221749.168001                       # Energy for refresh commands per rank (pJ)
system.mem_ctrls0_1.actBackEnergy        112587127.128000                       # Energy for active background per rank (pJ)
system.mem_ctrls0_1.preBackEnergy        9961006.003200                       # Energy for precharge background per rank (pJ)
system.mem_ctrls0_1.actPowerDownEnergy   736185152.102400                       # Energy for active power-down per rank (pJ)
system.mem_ctrls0_1.prePowerDownEnergy   65714103.840000                       # Energy for precharge power-down per rank (pJ)
system.mem_ctrls0_1.selfRefreshEnergy    61638090.897600                       # Energy for self refresh per rank (pJ)
system.mem_ctrls0_1.totalEnergy          1267464027.513601                       # Total energy per rank (pJ)
system.mem_ctrls0_1.averagePower           800.295014                       # Core power per rank (mW)
system.mem_ctrls0_1.totalIdleTime          1433813300                       # Total Idle time Per DRAM Rank
system.mem_ctrls0_1.memoryStateTime::IDLE      9927840                       # Time in different power states
system.mem_ctrls0_1.memoryStateTime::REF     66500000                       # Time in different power states
system.mem_ctrls0_1.memoryStateTime::SREF    100847121                       # Time in different power states
system.mem_ctrls0_1.memoryStateTime::PRE_PDN    136905201                       # Time in different power states
system.mem_ctrls0_1.memoryStateTime::ACT     71323741                       # Time in different power states
system.mem_ctrls0_1.memoryStateTime::ACT_PDN   1198242097                       # Time in different power states
system.mem_ctrls1.pwrStateResidencyTicks::UNDEFINED   1583746000                       # Cumulative time (in ticks) in various power states
system.mem_ctrls1.bytes_read::.cpu.inst         51648                       # Number of bytes read from this memory
system.mem_ctrls1.bytes_read::.cpu.data        209984                       # Number of bytes read from this memory
system.mem_ctrls1.bytes_read::.l2.prefetcher        89344                       # Number of bytes read from this memory
system.mem_ctrls1.bytes_read::total            350976                       # Number of bytes read from this memory
system.mem_ctrls1.bytes_inst_read::.cpu.inst        51648                       # Number of instructions bytes read from this memory
system.mem_ctrls1.bytes_inst_read::total        51648                       # Number of instructions bytes read from this memory
system.mem_ctrls1.num_reads::.cpu.inst            807                       # Number of read requests responded to by this memory
system.mem_ctrls1.num_reads::.cpu.data           3281                       # Number of read requests responded to by this memory
system.mem_ctrls1.num_reads::.l2.prefetcher         1396                       # Number of read requests responded to by this memory
system.mem_ctrls1.num_reads::total               5484                       # Number of read requests responded to by this memory
system.mem_ctrls1.bw_read::.cpu.inst         32611290                       # Total read bandwidth from this memory (bytes/s)
system.mem_ctrls1.bw_read::.cpu.data        132586917                       # Total read bandwidth from this memory (bytes/s)
system.mem_ctrls1.bw_read::.l2.prefetcher     56413086                       # Total read bandwidth from this memory (bytes/s)
system.mem_ctrls1.bw_read::total            221611294                       # Total read bandwidth from this memory (bytes/s)
system.mem_ctrls1.bw_inst_read::.cpu.inst     32611290                       # Instruction read bandwidth from this memory (bytes/s)
system.mem_ctrls1.bw_inst_read::total        32611290                       # Instruction read bandwidth from this memory (bytes/s)
system.mem_ctrls1.bw_total::.cpu.inst        32611290                       # Total bandwidth to/from this memory (bytes/s)
system.mem_ctrls1.bw_total::.cpu.data       132586917                       # Total bandwidth to/from this memory (bytes/s)
system.mem_ctrls1.bw_total::.l2.prefetcher     56413086                       # Total bandwidth to/from this memory (bytes/s)
system.mem_ctrls1.bw_total::total           221611294                       # Total bandwidth to/from this memory (bytes/s)
system.mem_ctrls1.avgPriority_.cpu.inst::samples       807.00                       # Average QoS priority value for accepted requests
system.mem_ctrls1.avgPriority_.cpu.data::samples      3281.00                       # Average QoS priority value for accepted requests
system.mem_ctrls1.avgPriority_.l2.prefetcher::samples      1396.00                       # Average QoS priority value for accepted requests
system.mem_ctrls1.priorityMinLatency     0.000000017492                       # per QoS priority minimum request to response latency (s)
system.mem_ctrls1.priorityMaxLatency     0.000001420485                       # per QoS priority maximum request to response latency (s)
system.mem_ctrls1.numReadWriteTurnArounds            0                       # Number of turnarounds from READ to WRITE
system.mem_ctrls1.numWriteReadTurnArounds            0                       # Number of turnarounds from WRITE to READ
system.mem_ctrls1.numStayReadState              11306                       # Number of times bus staying in READ state
system.mem_ctrls1.numStayWriteState                 0                       # Number of times bus staying in WRITE state
system.mem_ctrls1.readReqs                       5484                       # Number of read requests accepted
system.mem_ctrls1.writeReqs                         0                       # Number of write requests accepted
system.mem_ctrls1.readBursts                     5484                       # Number of DRAM read bursts, including those serviced by the write queue
system.mem_ctrls1.writeBursts                       0                       # Number of DRAM write bursts, including those merged in the write queue
system.mem_ctrls1.bytesReadDRAM                350976                       # Total number of bytes read from DRAM
system.mem_ctrls1.bytesReadWrQ                      0                       # Total number of bytes read from write queue
system.mem_ctrls1.bytesWritten                      0                       # Total number of bytes written to DRAM
system.mem_ctrls1.bytesReadSys                 350976                       # Total read bytes from the system interface side
system.mem_ctrls1.bytesWrittenSys                   0                       # Total written bytes from the system interface side
system.mem_ctrls1.servicedByWrQ                     0                       # Number of DRAM read bursts serviced by the write queue
system.mem_ctrls1.mergedWrBursts                    0                       # Number of DRAM write bursts merged with an existing one
system.mem_ctrls1.neitherReadNorWriteReqs            0                       # Number of requests that are neither read nor write
system.mem_ctrls1.perBankRdBursts::0              178                       # Per bank write bursts
system.mem_ctrls1.perBankRdBursts::1              221                       # Per bank write bursts
system.mem_ctrls1.perBankRdBursts::2              278                       # Per bank write bursts
system.mem_ctrls1.perBankRdBursts::3              260                       # Per bank write bursts
system.mem_ctrls1.perBankRdBursts::4              289                       # Per bank write bursts
system.mem_ctrls1.perBankRdBursts::5              283                       # Per bank write bursts
system.mem_ctrls1.perBankRdBursts::6              132                       # Per bank write bursts
system.mem_ctrls1.perBankRdBursts::7              232                       # Per bank write bursts
system.mem_ctrls1.perBankRdBursts::8              207                       # Per bank write bursts
system.mem_ctrls1.perBankRdBursts::9              217                       # Per bank write bursts
system.mem_ctrls1.perBankRdBursts::10             105                       # Per bank write bursts
system.mem_ctrls1.perBankRdBursts::11              85                       # Per bank write bursts
system.mem_ctrls1.perBankRdBursts::12             122                       # Per bank write bursts
system.mem_ctrls1.perBankRdBursts::13              53                       # Per bank write bursts
system.mem_ctrls1.perBankRdBursts::14              47                       # Per bank write bursts
system.mem_ctrls1.perBankRdBursts::15              28                       # Per bank write bursts
system.mem_ctrls1.perBankRdBursts::16              67                       # Per bank write bursts
system.mem_ctrls1.perBankRdBursts::17              68                       # Per bank write bursts
system.mem_ctrls1.perBankRdBursts::18             126                       # Per bank write bursts
system.mem_ctrls1.perBankRdBursts::19             136                       # Per bank write bursts
system.mem_ctrls1.perBankRdBursts::20             130                       # Per bank write bursts
system.mem_ctrls1.perBankRdBursts::21             133                       # Per bank write bursts
system.mem_ctrls1.perBankRdBursts::22             133                       # Per bank write bursts
system.mem_ctrls1.perBankRdBursts::23             215                       # Per bank write bursts
system.mem_ctrls1.perBankRdBursts::24             275                       # Per bank write bursts
system.mem_ctrls1.perBankRdBursts::25             268                       # Per bank write bursts
system.mem_ctrls1.perBankRdBursts::26             217                       # Per bank write bursts
system.mem_ctrls1.perBankRdBursts::27             256                       # Per bank write bursts
system.mem_ctrls1.perBankRdBursts::28             255                       # Per bank write bursts
system.mem_ctrls1.perBankRdBursts::29              89                       # Per bank write bursts
system.mem_ctrls1.perBankRdBursts::30             190                       # Per bank write bursts
system.mem_ctrls1.perBankRdBursts::31             189                       # Per bank write bursts
system.mem_ctrls1.perBankWrBursts::0                0                       # Per bank write bursts
system.mem_ctrls1.perBankWrBursts::1                0                       # Per bank write bursts
system.mem_ctrls1.perBankWrBursts::2                0                       # Per bank write bursts
system.mem_ctrls1.perBankWrBursts::3                0                       # Per bank write bursts
system.mem_ctrls1.perBankWrBursts::4                0                       # Per bank write bursts
system.mem_ctrls1.perBankWrBursts::5                0                       # Per bank write bursts
system.mem_ctrls1.perBankWrBursts::6                0                       # Per bank write bursts
system.mem_ctrls1.perBankWrBursts::7                0                       # Per bank write bursts
system.mem_ctrls1.perBankWrBursts::8                0                       # Per bank write bursts
system.mem_ctrls1.perBankWrBursts::9                0                       # Per bank write bursts
system.mem_ctrls1.perBankWrBursts::10               0                       # Per bank write bursts
system.mem_ctrls1.perBankWrBursts::11               0                       # Per bank write bursts
system.mem_ctrls1.perBankWrBursts::12               0                       # Per bank write bursts
system.mem_ctrls1.perBankWrBursts::13               0                       # Per bank write bursts
system.mem_ctrls1.perBankWrBursts::14               0                       # Per bank write bursts
system.mem_ctrls1.perBankWrBursts::15               0                       # Per bank write bursts
system.mem_ctrls1.perBankWrBursts::16               0                       # Per bank write bursts
system.mem_ctrls1.perBankWrBursts::17               0                       # Per bank write bursts
system.mem_ctrls1.perBankWrBursts::18               0                       # Per bank write bursts
system.mem_ctrls1.perBankWrBursts::19               0                       # Per bank write bursts
system.mem_ctrls1.perBankWrBursts::20               0                       # Per bank write bursts
system.mem_ctrls1.perBankWrBursts::21               0                       # Per bank write bursts
system.mem_ctrls1.perBankWrBursts::22               0                       # Per bank write bursts
system.mem_ctrls1.perBankWrBursts::23               0                       # Per bank write bursts
system.mem_ctrls1.perBankWrBursts::24               0                       # Per bank write bursts
system.mem_ctrls1.perBankWrBursts::25               0                       # Per bank write bursts
system.mem_ctrls1.perBankWrBursts::26               0                       # Per bank write bursts
system.mem_ctrls1.perBankWrBursts::27               0                       # Per bank write bursts
system.mem_ctrls1.perBankWrBursts::28               0                       # Per bank write bursts
system.mem_ctrls1.perBankWrBursts::29               0                       # Per bank write bursts
system.mem_ctrls1.perBankWrBursts::30               0                       # Per bank write bursts
system.mem_ctrls1.perBankWrBursts::31               0                       # Per bank write bursts
system.mem_ctrls1.numRdRetry                        0                       # Number of times read queue was full causing retry
system.mem_ctrls1.numWrRetry                        0                       # Number of times write queue was full causing retry
system.mem_ctrls1.totGap                   1583626000                       # Total gap between requests
system.mem_ctrls1.readPktSize::0                    0                       # Read request sizes (log2)
system.mem_ctrls1.readPktSize::1                    0                       # Read request sizes (log2)
system.mem_ctrls1.readPktSize::2                    0                       # Read request sizes (log2)
system.mem_ctrls1.readPktSize::3                    0                       # Read request sizes (log2)
system.mem_ctrls1.readPktSize::4                    0                       # Read request sizes (log2)
system.mem_ctrls1.readPktSize::5                    0                       # Read request sizes (log2)
system.mem_ctrls1.readPktSize::6                 5484                       # Read request sizes (log2)
system.mem_ctrls1.writePktSize::0                   0                       # Write request sizes (log2)
system.mem_ctrls1.writePktSize::1                   0                       # Write request sizes (log2)
system.mem_ctrls1.writePktSize::2                   0                       # Write request sizes (log2)
system.mem_ctrls1.writePktSize::3                   0                       # Write request sizes (log2)
system.mem_ctrls1.writePktSize::4                   0                       # Write request sizes (log2)
system.mem_ctrls1.writePktSize::5                   0                       # Write request sizes (log2)
system.mem_ctrls1.writePktSize::6                   0                       # Write request sizes (log2)
system.mem_ctrls1.rdQLenPdf::0                   4388                       # What read queue length does an incoming req see
system.mem_ctrls1.rdQLenPdf::1                    645                       # What read queue length does an incoming req see
system.mem_ctrls1.rdQLenPdf::2                    228                       # What read queue length does an incoming req see
system.mem_ctrls1.rdQLenPdf::3                    136                       # What read queue length does an incoming req see
system.mem_ctrls1.rdQLenPdf::4                     68                       # What read queue length does an incoming req see
system.mem_ctrls1.rdQLenPdf::5                     14                       # What read queue length does an incoming req see
system.mem_ctrls1.rdQLenPdf::6                      4                       # What read queue length does an incoming req see
system.mem_ctrls1.rdQLenPdf::7                      1                       # What read queue length does an incoming req see
system.mem_ctrls1.rdQLenPdf::8                      0                       # What read queue length does an incoming req see
system.mem_ctrls1.rdQLenPdf::9                      0                       # What read queue length does an incoming req see
system.mem_ctrls1.rdQLenPdf::10                     0                       # What read queue length does an incoming req see
system.mem_ctrls1.rdQLenPdf::11                     0                       # What read queue length does an incoming req see
system.mem_ctrls1.rdQLenPdf::12                     0                       # What read queue length does an incoming req see
system.mem_ctrls1.rdQLenPdf::13                     0                       # What read queue length does an incoming req see
system.mem_ctrls1.rdQLenPdf::14                     0                       # What read queue length does an incoming req see
system.mem_ctrls1.rdQLenPdf::15                     0                       # What read queue length does an incoming req see
system.mem_ctrls1.rdQLenPdf::16                     0                       # What read queue length does an incoming req see
system.mem_ctrls1.rdQLenPdf::17                     0                       # What read queue length does an incoming req see
system.mem_ctrls1.rdQLenPdf::18                     0                       # What read queue length does an incoming req see
system.mem_ctrls1.rdQLenPdf::19                     0                       # What read queue length does an incoming req see
system.mem_ctrls1.rdQLenPdf::20                     0                       # What read queue length does an incoming req see
system.mem_ctrls1.rdQLenPdf::21                     0                       # What read queue length does an incoming req see
system.mem_ctrls1.rdQLenPdf::22                     0                       # What read queue length does an incoming req see
system.mem_ctrls1.rdQLenPdf::23                     0                       # What read queue length does an incoming req see
system.mem_ctrls1.rdQLenPdf::24                     0                       # What read queue length does an incoming req see
system.mem_ctrls1.rdQLenPdf::25                     0                       # What read queue length does an incoming req see
system.mem_ctrls1.rdQLenPdf::26                     0                       # What read queue length does an incoming req see
system.mem_ctrls1.rdQLenPdf::27                     0                       # What read queue length does an incoming req see
system.mem_ctrls1.rdQLenPdf::28                     0                       # What read queue length does an incoming req see
system.mem_ctrls1.rdQLenPdf::29                     0                       # What read queue length does an incoming req see
system.mem_ctrls1.rdQLenPdf::30                     0                       # What read queue length does an incoming req see
system.mem_ctrls1.rdQLenPdf::31                     0                       # What read queue length does an incoming req see
system.mem_ctrls1.rdQLenPdf::32                     0                       # What read queue length does an incoming req see
system.mem_ctrls1.rdQLenPdf::33                     0                       # What read queue length does an incoming req see
system.mem_ctrls1.rdQLenPdf::34                     0                       # What read queue length does an incoming req see
system.mem_ctrls1.rdQLenPdf::35                     0                       # What read queue length does an incoming req see
system.mem_ctrls1.rdQLenPdf::36                     0                       # What read queue length does an incoming req see
system.mem_ctrls1.rdQLenPdf::37                     0                       # What read queue length does an incoming req see
system.mem_ctrls1.rdQLenPdf::38                     0                       # What read queue length does an incoming req see
system.mem_ctrls1.rdQLenPdf::39                     0                       # What read queue length does an incoming req see
system.mem_ctrls1.rdQLenPdf::40                     0                       # What read queue length does an incoming req see
system.mem_ctrls1.rdQLenPdf::41                     0                       # What read queue length does an incoming req see
system.mem_ctrls1.rdQLenPdf::42                     0                       # What read queue length does an incoming req see
system.mem_ctrls1.rdQLenPdf::43                     0                       # What read queue length does an incoming req see
system.mem_ctrls1.rdQLenPdf::44                     0                       # What read queue length does an incoming req see
system.mem_ctrls1.rdQLenPdf::45                     0                       # What read queue length does an incoming req see
system.mem_ctrls1.rdQLenPdf::46                     0                       # What read queue length does an incoming req see
system.mem_ctrls1.rdQLenPdf::47                     0                       # What read queue length does an incoming req see
system.mem_ctrls1.rdQLenPdf::48                     0                       # What read queue length does an incoming req see
system.mem_ctrls1.rdQLenPdf::49                     0                       # What read queue length does an incoming req see
system.mem_ctrls1.rdQLenPdf::50                     0                       # What read queue length does an incoming req see
system.mem_ctrls1.rdQLenPdf::51                     0                       # What read queue length does an incoming req see
system.mem_ctrls1.rdQLenPdf::52                     0                       # What read queue length does an incoming req see
system.mem_ctrls1.rdQLenPdf::53                     0                       # What read queue length does an incoming req see
system.mem_ctrls1.rdQLenPdf::54                     0                       # What read queue length does an incoming req see
system.mem_ctrls1.rdQLenPdf::55                     0                       # What read queue length does an incoming req see
system.mem_ctrls1.rdQLenPdf::56                     0                       # What read queue length does an incoming req see
system.mem_ctrls1.rdQLenPdf::57                     0                       # What read queue length does an incoming req see
system.mem_ctrls1.rdQLenPdf::58                     0                       # What read queue length does an incoming req see
system.mem_ctrls1.rdQLenPdf::59                     0                       # What read queue length does an incoming req see
system.mem_ctrls1.rdQLenPdf::60                     0                       # What read queue length does an incoming req see
system.mem_ctrls1.rdQLenPdf::61                     0                       # What read queue length does an incoming req see
system.mem_ctrls1.rdQLenPdf::62                     0                       # What read queue length does an incoming req see
system.mem_ctrls1.rdQLenPdf::63                     0                       # What read queue length does an incoming req see
system.mem_ctrls1.wrQLenPdf::0                      0                       # What write queue length does an incoming req see
system.mem_ctrls1.wrQLenPdf::1                      0                       # What write queue length does an incoming req see
system.mem_ctrls1.wrQLenPdf::2                      0                       # What write queue length does an incoming req see
system.mem_ctrls1.wrQLenPdf::3                      0                       # What write queue length does an incoming req see
system.mem_ctrls1.wrQLenPdf::4                      0                       # What write queue length does an incoming req see
system.mem_ctrls1.wrQLenPdf::5                      0                       # What write queue length does an incoming req see
system.mem_ctrls1.wrQLenPdf::6                      0                       # What write queue length does an incoming req see
system.mem_ctrls1.wrQLenPdf::7                      0                       # What write queue length does an incoming req see
system.mem_ctrls1.wrQLenPdf::8                      0                       # What write queue length does an incoming req see
system.mem_ctrls1.wrQLenPdf::9                      0                       # What write queue length does an incoming req see
system.mem_ctrls1.wrQLenPdf::10                     0                       # What write queue length does an incoming req see
system.mem_ctrls1.wrQLenPdf::11                     0                       # What write queue length does an incoming req see
system.mem_ctrls1.wrQLenPdf::12                     0                       # What write queue length does an incoming req see
system.mem_ctrls1.wrQLenPdf::13                     0                       # What write queue length does an incoming req see
system.mem_ctrls1.wrQLenPdf::14                     0                       # What write queue length does an incoming req see
system.mem_ctrls1.wrQLenPdf::15                     0                       # What write queue length does an incoming req see
system.mem_ctrls1.wrQLenPdf::16                     0                       # What write queue length does an incoming req see
system.mem_ctrls1.wrQLenPdf::17                     0                       # What write queue length does an incoming req see
system.mem_ctrls1.wrQLenPdf::18                     0                       # What write queue length does an incoming req see
system.mem_ctrls1.wrQLenPdf::19                     0                       # What write queue length does an incoming req see
system.mem_ctrls1.wrQLenPdf::20                     0                       # What write queue length does an incoming req see
system.mem_ctrls1.wrQLenPdf::21                     0                       # What write queue length does an incoming req see
system.mem_ctrls1.wrQLenPdf::22                     0                       # What write queue length does an incoming req see
system.mem_ctrls1.wrQLenPdf::23                     0                       # What write queue length does an incoming req see
system.mem_ctrls1.wrQLenPdf::24                     0                       # What write queue length does an incoming req see
system.mem_ctrls1.wrQLenPdf::25                     0                       # What write queue length does an incoming req see
system.mem_ctrls1.wrQLenPdf::26                     0                       # What write queue length does an incoming req see
system.mem_ctrls1.wrQLenPdf::27                     0                       # What write queue length does an incoming req see
system.mem_ctrls1.wrQLenPdf::28                     0                       # What write queue length does an incoming req see
system.mem_ctrls1.wrQLenPdf::29                     0                       # What write queue length does an incoming req see
system.mem_ctrls1.wrQLenPdf::30                     0                       # What write queue length does an incoming req see
system.mem_ctrls1.wrQLenPdf::31                     0                       # What write queue length does an incoming req see
system.mem_ctrls1.wrQLenPdf::32                     0                       # What write queue length does an incoming req see
system.mem_ctrls1.wrQLenPdf::33                     0                       # What write queue length does an incoming req see
system.mem_ctrls1.wrQLenPdf::34                     0                       # What write queue length does an incoming req see
system.mem_ctrls1.wrQLenPdf::35                     0                       # What write queue length does an incoming req see
system.mem_ctrls1.wrQLenPdf::36                     0                       # What write queue length does an incoming req see
system.mem_ctrls1.wrQLenPdf::37                     0                       # What write queue length does an incoming req see
system.mem_ctrls1.wrQLenPdf::38                     0                       # What write queue length does an incoming req see
system.mem_ctrls1.wrQLenPdf::39                     0                       # What write queue length does an incoming req see
system.mem_ctrls1.wrQLenPdf::40                     0                       # What write queue length does an incoming req see
system.mem_ctrls1.wrQLenPdf::41                     0                       # What write queue length does an incoming req see
system.mem_ctrls1.wrQLenPdf::42                     0                       # What write queue length does an incoming req see
system.mem_ctrls1.wrQLenPdf::43                     0                       # What write queue length does an incoming req see
system.mem_ctrls1.wrQLenPdf::44                     0                       # What write queue length does an incoming req see
system.mem_ctrls1.wrQLenPdf::45                     0                       # What write queue length does an incoming req see
system.mem_ctrls1.wrQLenPdf::46                     0                       # What write queue length does an incoming req see
system.mem_ctrls1.wrQLenPdf::47                     0                       # What write queue length does an incoming req see
system.mem_ctrls1.wrQLenPdf::48                     0                       # What write queue length does an incoming req see
system.mem_ctrls1.wrQLenPdf::49                     0                       # What write queue length does an incoming req see
system.mem_ctrls1.wrQLenPdf::50                     0                       # What write queue length does an incoming req see
system.mem_ctrls1.wrQLenPdf::51                     0                       # What write queue length does an incoming req see
system.mem_ctrls1.wrQLenPdf::52                     0                       # What write queue length does an incoming req see
system.mem_ctrls1.wrQLenPdf::53                     0                       # What write queue length does an incoming req see
system.mem_ctrls1.wrQLenPdf::54                     0                       # What write queue length does an incoming req see
system.mem_ctrls1.wrQLenPdf::55                     0                       # What write queue length does an incoming req see
system.mem_ctrls1.wrQLenPdf::56                     0                       # What write queue length does an incoming req see
system.mem_ctrls1.wrQLenPdf::57                     0                       # What write queue length does an incoming req see
system.mem_ctrls1.wrQLenPdf::58                     0                       # What write queue length does an incoming req see
system.mem_ctrls1.wrQLenPdf::59                     0                       # What write queue length does an incoming req see
system.mem_ctrls1.wrQLenPdf::60                     0                       # What write queue length does an incoming req see
system.mem_ctrls1.wrQLenPdf::61                     0                       # What write queue length does an incoming req see
system.mem_ctrls1.wrQLenPdf::62                     0                       # What write queue length does an incoming req see
system.mem_ctrls1.wrQLenPdf::63                     0                       # What write queue length does an incoming req see
system.mem_ctrls1.wrQLenPdf::64                     0                       # What write queue length does an incoming req see
[...]
system.l2.ReadExReq_avg_miss_latency::.cpu.data 106340.136054                       # average ReadExReq miss latency
system.l2.ReadExReq_avg_miss_latency::total 106340.136054                       # average ReadExReq miss latency
system.l2.ReadCleanReq_avg_miss_latency::.cpu.inst 107007.380074                       # average ReadCleanReq miss latency
system.l2.ReadCleanReq_avg_miss_latency::total 107007.380074                       # average ReadCleanReq miss latency
system.l2.ReadSharedReq_avg_miss_latency::.cpu.data 113307.557265                       # average ReadSharedReq miss latency
system.l2.ReadSharedReq_avg_miss_latency::total 113307.557265                       # average ReadSharedReq miss latency
system.l2.demand_avg_miss_latency::.cpu.inst 107007.380074                       # average overall miss latency
system.l2.demand_avg_miss_latency::.cpu.data 112683.894048                       # average overall miss latency
system.l2.demand_avg_miss_latency::total 111557.596095                       # average overall miss latency
system.l2.overall_avg_miss_latency::.cpu.inst 107007.380074                       # average overall miss latency
system.l2.overall_avg_miss_latency::.cpu.data 112683.894048                       # average overall miss latency
system.l2.overall_avg_miss_latency::total 111557.596095                       # average overall miss latency
system.l2.blocked_cycles::no_mshrs                  0                       # number of cycles access was blocked
system.l2.blocked_cycles::no_targets                0                       # number of cycles access was blocked
system.l2.blocked::no_mshrs                         0                       # number of cycles access was blocked
system.l2.blocked::no_targets                       0                       # number of cycles access was blocked
system.l2.avg_blocked_cycles::no_mshrs            nan                       # average number of cycles each access was blocked
system.l2.avg_blocked_cycles::no_targets          nan                       # average number of cycles each access was blocked
system.l2.ReadExReq_mshr_hits::.cpu.data            4                       # number of ReadExReq MSHR hits
system.l2.ReadExReq_mshr_hits::total                4                       # number of ReadExReq MSHR hits
system.l2.ReadSharedReq_mshr_hits::.cpu.data           28                       # number of ReadSharedReq MSHR hits
system.l2.ReadSharedReq_mshr_hits::total           28                       # number of ReadSharedReq MSHR hits
system.l2.demand_mshr_hits::.cpu.data              32                       # number of demand (read+write) MSHR hits
system.l2.demand_mshr_hits::total                  32                       # number of demand (read+write) MSHR hits
system.l2.overall_mshr_hits::.cpu.data             32                       # number of overall MSHR hits
system.l2.overall_mshr_hits::total                 32                       # number of overall MSHR hits
system.l2.HardPFReq_mshr_misses::.l2.prefetcher         3211                       # number of HardPFReq MSHR misses
system.l2.HardPFReq_mshr_misses::total           3211                       # number of HardPFReq MSHR misses
system.l2.ReadExReq_mshr_misses::.cpu.data          584                       # number of ReadExReq MSHR misses
system.l2.ReadExReq_mshr_misses::total            584                       # number of ReadExReq MSHR misses
system.l2.ReadCleanReq_mshr_misses::.cpu.inst         1626                       # number of ReadCleanReq MSHR misses
system.l2.ReadCleanReq_mshr_misses::total         1626                       # number of ReadCleanReq MSHR misses
system.l2.ReadSharedReq_mshr_misses::.cpu.data         5953                       # number of ReadSharedReq MSHR misses
system.l2.ReadSharedReq_mshr_misses::total         5953                       # number of ReadSharedReq MSHR misses
system.l2.demand_mshr_misses::.cpu.inst          1626                       # number of demand (read+write) MSHR misses
system.l2.demand_mshr_misses::.cpu.data          6537                       # number of demand (read+write) MSHR misses
system.l2.demand_mshr_misses::total              8163                       # number of demand (read+write) MSHR misses
system.l2.overall_mshr_misses::.cpu.inst         1626                       # number of overall MSHR misses
system.l2.overall_mshr_misses::.cpu.data         6537                       # number of overall MSHR misses
system.l2.overall_mshr_misses::.l2.prefetcher         3211                       # number of overall MSHR misses
system.l2.overall_mshr_misses::total            11374                       # number of overall MSHR misses
system.l2.HardPFReq_mshr_miss_latency::.l2.prefetcher    200556596                       # number of HardPFReq MSHR miss cycles
system.l2.HardPFReq_mshr_miss_latency::total    200556596                       # number of HardPFReq MSHR miss cycles
system.l2.ReadExReq_mshr_miss_latency::.cpu.data     49224000                       # number of ReadExReq MSHR miss cycles
system.l2.ReadExReq_mshr_miss_latency::total     49224000                       # number of ReadExReq MSHR miss cycles
system.l2.ReadCleanReq_mshr_miss_latency::.cpu.inst    139869000                       # number of ReadCleanReq MSHR miss cycles
system.l2.ReadCleanReq_mshr_miss_latency::total    139869000                       # number of ReadCleanReq MSHR miss cycles
system.l2.ReadSharedReq_mshr_miss_latency::.cpu.data    550215000                       # number of ReadSharedReq MSHR miss cycles
system.l2.ReadSharedReq_mshr_miss_latency::total    550215000                       # number of ReadSharedReq MSHR miss cycles
system.l2.demand_mshr_miss_latency::.cpu.inst    139869000                       # number of demand (read+write) MSHR miss cycles
system.l2.demand_mshr_miss_latency::.cpu.data    599439000                       # number of demand (read+write) MSHR miss cycles
system.l2.demand_mshr_miss_latency::total    739308000                       # number of demand (read+write) MSHR miss cycles
system.l2.overall_mshr_miss_latency::.cpu.inst    139869000                       # number of overall MSHR miss cycles
system.l2.overall_mshr_miss_latency::.cpu.data    599439000                       # number of overall MSHR miss cycles
system.l2.overall_mshr_miss_latency::.l2.prefetcher    200556596                       # number of overall MSHR miss cycles
system.l2.overall_mshr_miss_latency::total    939864596                       # number of overall MSHR miss cycles
system.l2.HardPFReq_mshr_miss_rate::.l2.prefetcher          inf                       # mshr miss rate for HardPFReq accesses
system.l2.HardPFReq_mshr_miss_rate::total          inf                       # mshr miss rate for HardPFReq accesses
system.l2.ReadExReq_mshr_miss_rate::.cpu.data     0.294503                       # mshr miss rate for ReadExReq accesses
system.l2.ReadExReq_mshr_miss_rate::total     0.294503                       # mshr miss rate for ReadExReq accesses
system.l2.ReadCleanReq_mshr_miss_rate::.cpu.inst     0.710354                       # mshr miss rate for ReadCleanReq accesses
system.l2.ReadCleanReq_mshr_miss_rate::total     0.710354                       # mshr miss rate for ReadCleanReq accesses
system.l2.ReadSharedReq_mshr_miss_rate::.cpu.data     0.503127                       # mshr miss rate for ReadSharedReq accesses
system.l2.ReadSharedReq_mshr_miss_rate::total     0.503127                       # mshr miss rate for ReadSharedReq accesses
system.l2.demand_mshr_miss_rate::.cpu.inst     0.710354                       # mshr miss rate for demand accesses
system.l2.demand_mshr_miss_rate::.cpu.data     0.473181                       # mshr miss rate for demand accesses
system.l2.demand_mshr_miss_rate::total       0.506893                       # mshr miss rate for demand accesses
system.l2.overall_mshr_miss_rate::.cpu.inst     0.710354                       # mshr miss rate for overall accesses
system.l2.overall_mshr_miss_rate::.cpu.data     0.473181                       # mshr miss rate for overall accesses
system.l2.overall_mshr_miss_rate::.l2.prefetcher          inf                       # mshr miss rate for overall accesses
system.l2.overall_mshr_miss_rate::total      0.706284                       # mshr miss rate for overall accesses
system.l2.HardPFReq_avg_mshr_miss_latency::.l2.prefetcher 62459.232638                       # average HardPFReq mshr miss latency
system.l2.HardPFReq_avg_mshr_miss_latency::total 62459.232638                       # average HardPFReq mshr miss latency
system.l2.ReadExReq_avg_mshr_miss_latency::.cpu.data 84287.671233                       # average ReadExReq mshr miss latency
system.l2.ReadExReq_avg_mshr_miss_latency::total 84287.671233                       # average ReadExReq mshr miss latency
system.l2.ReadCleanReq_avg_mshr_miss_latency::.cpu.inst 86020.295203                       # average ReadCleanReq mshr miss latency
system.l2.ReadCleanReq_avg_mshr_miss_latency::total 86020.295203                       # average ReadCleanReq mshr miss latency
system.l2.ReadSharedReq_avg_mshr_miss_latency::.cpu.data 92426.507643                       # average ReadSharedReq mshr miss latency
system.l2.ReadSharedReq_avg_mshr_miss_latency::total 92426.507643                       # average ReadSharedReq mshr miss latency
system.l2.demand_avg_mshr_miss_latency::.cpu.inst 86020.295203                       # average overall mshr miss latency
system.l2.demand_avg_mshr_miss_latency::.cpu.data 91699.403396                       # average overall mshr miss latency
system.l2.demand_avg_mshr_miss_latency::total 90568.173466                       # average overall mshr miss latency
system.l2.overall_avg_mshr_miss_latency::.cpu.inst 86020.295203                       # average overall mshr miss latency
system.l2.overall_avg_mshr_miss_latency::.cpu.data 91699.403396                       # average overall mshr miss latency
system.l2.overall_avg_mshr_miss_latency::.l2.prefetcher 62459.232638                       # average overall mshr miss latency
system.l2.overall_avg_mshr_miss_latency::total 82632.723404                       # average overall mshr miss latency
system.l2.replacements                              0                       # number of replacements
system.membus.snoop_filter.tot_requests         10948                       # Total number of requests made to the snoop filter.
system.membus.snoop_filter.hit_single_requests           15                       # Number of requests hitting in the snoop filter with a single holder of the requested data.
system.membus.snoop_filter.hit_multi_requests            0                       # Number of requests hitting in the snoop filter with multiple (>1) holders of the requested data.
system.membus.snoop_filter.tot_snoops               0                       # Total number of snoops made to the snoop filter.
system.membus.snoop_filter.hit_single_snoops            0                       # Number of snoops hitting in the snoop filter with a single holder of the requested data.
system.membus.snoop_filter.hit_multi_snoops            0                       # Number of snoops hitting in the snoop filter with multiple (>1) holders of the requested data.
system.membus.pwrStateResidencyTicks::UNDEFINED   1583746000                       # Cumulative time (in ticks) in various power states
system.membus.trans_dist::ReadResp              10364                       # Transaction distribution
system.membus.trans_dist::ReadExReq               584                       # Transaction distribution
system.membus.trans_dist::ReadExResp              584                       # Transaction distribution
system.membus.trans_dist::ReadCleanReq          10364                       # Transaction distribution
system.membus.pkt_count_system.l2.mem_side::system.mem_ctrls0.port        10928                       # Packet count per connected master and slave (bytes)
system.membus.pkt_count_system.l2.mem_side::system.mem_ctrls1.port        10968                       # Packet count per connected master and slave (bytes)
system.membus.pkt_count_system.l2.mem_side::total        21896                       # Packet count per connected master and slave (bytes)
system.membus.pkt_count::total                  21896                       # Packet count per connected master and slave (bytes)
system.membus.pkt_size_system.l2.mem_side::system.mem_ctrls0.port       349696                       # Cumulative packet size per connected master and slave (bytes)
system.membus.pkt_size_system.l2.mem_side::system.mem_ctrls1.port       350976                       # Cumulative packet size per connected master and slave (bytes)
system.membus.pkt_size_system.l2.mem_side::total       700672                       # Cumulative packet size per connected master and slave (bytes)
system.membus.pkt_size::total                  700672                       # Cumulative packet size per connected master and slave (bytes)
system.membus.snoops                                0                       # Total snoops (count)
system.membus.snoopTraffic                          0                       # Total snoop traffic (bytes)
system.membus.snoop_fanout::samples             10948                       # Request fanout histogram
system.membus.snoop_fanout::mean                    0                       # Request fanout histogram
system.membus.snoop_fanout::stdev                   0                       # Request fanout histogram
system.membus.snoop_fanout::underflows              0      0.00%      0.00% # Request fanout histogram
system.membus.snoop_fanout::0                   10948    100.00%    100.00% # Request fanout histogram
system.membus.snoop_fanout::1                       0      0.00%    100.00% # Request fanout histogram
system.membus.snoop_fanout::overflows               0      0.00%    100.00% # Request fanout histogram
system.membus.snoop_fanout::min_value               0                       # Request fanout histogram
system.membus.snoop_fanout::max_value               0                       # Request fanout histogram
system.membus.snoop_fanout::total               10948                       # Request fanout histogram
system.membus.reqLayer2.occupancy             7302175                       # Layer occupancy (ticks)
system.membus.reqLayer2.utilization               0.5                       # Layer utilization (%)
system.membus.reqLayer3.occupancy             7319623                       # Layer occupancy (ticks)
system.membus.reqLayer3.utilization               0.5                       # Layer utilization (%)
system.membus.respLayer1.occupancy           58739358                       # Layer occupancy (ticks)
system.membus.respLayer1.utilization              3.7                       # Layer utilization (%)
system.tol2bus.snoop_filter.tot_requests        30678                       # Total number of requests made to the snoop filter.
system.tol2bus.snoop_filter.hit_single_requests        14576                       # Number of requests hitting in the snoop filter with a single holder of the requested data.
system.tol2bus.snoop_filter.hit_multi_requests           14                       # Number of requests hitting in the snoop filter with multiple (>1) holders of the requested data.
system.tol2bus.snoop_filter.tot_snoops            425                       # Total number of snoops made to the snoop filter.
system.tol2bus.snoop_filter.hit_single_snoops          425                       # Number of snoops hitting in the snoop filter with a single holder of the requested data.
system.tol2bus.snoop_filter.hit_multi_snoops            0                       # Number of snoops hitting in the snoop filter with multiple (>1) holders of the requested data.
system.tol2bus.pwrStateResidencyTicks::UNDEFINED   1583746000                       # Cumulative time (in ticks) in various power states
system.tol2bus.trans_dist::ReadResp             14123                       # Transaction distribution
system.tol2bus.trans_dist::WritebackDirty         2679                       # Transaction distribution
system.tol2bus.trans_dist::WritebackClean        11892                       # Transaction distribution
system.tol2bus.trans_dist::HardPFReq             3875                       # Transaction distribution
system.tol2bus.trans_dist::ReadExReq             1983                       # Transaction distribution
system.tol2bus.trans_dist::ReadExResp            1983                       # Transaction distribution
system.tol2bus.trans_dist::ReadCleanReq          2292                       # Transaction distribution
system.tol2bus.trans_dist::ReadSharedReq        11832                       # Transaction distribution
system.tol2bus.pkt_count_system.cpu.icache.mem_side::system.l2.cpu_side         6360                       # Packet count per connected master and slave (bytes)
system.tol2bus.pkt_count_system.cpu.dcache.mem_side::system.l2.cpu_side        40421                       # Packet count per connected master and slave (bytes)
system.tol2bus.pkt_count::total                 46781                       # Packet count per connected master and slave (bytes)
system.tol2bus.pkt_size_system.cpu.icache.mem_side::system.l2.cpu_side       260352                       # Cumulative packet size per connected master and slave (bytes)
system.tol2bus.pkt_size_system.cpu.dcache.mem_side::system.l2.cpu_side      1702784                       # Cumulative packet size per connected master and slave (bytes)
system.tol2bus.pkt_size::total                1963136                       # Cumulative packet size per connected master and slave (bytes)
system.tol2bus.snoops                            3878                       # Total snoops (count)
system.tol2bus.snoopTraffic                       192                       # Total snoop traffic (bytes)
system.tol2bus.snoop_fanout::samples            19982                       # Request fanout histogram
system.tol2bus.snoop_fanout::mean            0.022220                       # Request fanout histogram
system.tol2bus.snoop_fanout::stdev           0.147402                       # Request fanout histogram
system.tol2bus.snoop_fanout::underflows             0      0.00%      0.00% # Request fanout histogram
system.tol2bus.snoop_fanout::0                  19538     97.78%     97.78% # Request fanout histogram
system.tol2bus.snoop_fanout::1                    444      2.22%    100.00% # Request fanout histogram
system.tol2bus.snoop_fanout::2                      0      0.00%    100.00% # Request fanout histogram
system.tol2bus.snoop_fanout::3                      0      0.00%    100.00% # Request fanout histogram
system.tol2bus.snoop_fanout::4                      0      0.00%    100.00% # Request fanout histogram
system.tol2bus.snoop_fanout::overflows              0      0.00%    100.00% # Request fanout histogram
system.tol2bus.snoop_fanout::min_value              0                       # Request fanout histogram
system.tol2bus.snoop_fanout::max_value              1                       # Request fanout histogram
system.tol2bus.snoop_fanout::total              19982                       # Request fanout histogram
system.tol2bus.reqLayer0.occupancy           29910000                       # Layer occupancy (ticks)
system.tol2bus.reqLayer0.utilization              1.9                       # Layer utilization (%)
system.tol2bus.respLayer0.occupancy           3436500                       # Layer occupancy (ticks)
system.tol2bus.respLayer0.utilization             0.2                       # Layer utilization (%)
system.tol2bus.respLayer1.occupancy          20723997                       # Layer occupancy (ticks)
system.tol2bus.respLayer1.utilization             1.3                       # Layer utilization (%)

---------- End Simulation Statistics   ----------
