
---------- Begin Simulation Statistics ----------
sim_seconds                                  0.000719                       # Number of seconds simulated
sim_ticks                                   718604500                       # Number of ticks simulated
final_tick                                  718604500                       # Number of ticks from beginning of simulation (restored from checkpoints and never reset)
sim_freq                                 1000000000000                       # Frequency of simulated ticks
host_inst_rate                                   8404                       # Simulator instruction rate (inst/s)
host_op_rate                                    14796                       # Simulator op (including micro ops) rate (op/s)
host_tick_rate                                8055459                       # Simulator tick rate (ticks/s)
host_mem_usage                                8536400                       # Number of bytes of host memory used
host_seconds                                    89.21                       # Real time elapsed on the host
sim_insts                                      749725                       # Number of instructions simulated
sim_ops                                       1319911                       # Number of ops (including micro ops) simulated
system.voltage_domain.voltage                       1                       # Voltage in Volts
system.clk_domain.clock                          1000                       # Clock period in ticks
system.mem_ctrls0.pwrStateResidencyTicks::UNDEFINED    718604500                       # Cumulative time (in ticks) in various power states
system.mem_ctrls0.bytes_read::.cpu.inst         29888                       # Number of bytes read from this memory
system.mem_ctrls0.bytes_read::.cpu.data        117376                       # Number of bytes read from this memory
system.mem_ctrls0.bytes_read::.l2.prefetcher        48576                       # Number of bytes read from this memory
system.mem_ctrls0.bytes_read::total            195840                       # Number of bytes read from this memory
system.mem_ctrls0.bytes_inst_read::.cpu.inst        29888                       # Number of instructions bytes read from this memory
system.mem_ctrls0.bytes_inst_read::total        29888                       # Number of instructions bytes read from this memory
system.mem_ctrls0.num_reads::.cpu.inst            467                       # Number of read requests responded to by this memory
system.mem_ctrls0.num_reads::.cpu.data           1834                       # Number of read requests responded to by this memory
system.mem_ctrls0.num_reads::.l2.prefetcher          759                       # Number of read requests responded to by this memory
system.mem_ctrls0.num_reads::total               3060                       # Number of read requests responded to by this memory
system.mem_ctrls0.bw_read::.cpu.inst         41591724                       # Total read bandwidth from this memory (bytes/s)
system.mem_ctrls0.bw_read::.cpu.data        163338805                       # Total read bandwidth from this memory (bytes/s)
system.mem_ctrls0.bw_read::.l2.prefetcher     67597684                       # Total read bandwidth from this memory (bytes/s)
system.mem_ctrls0.bw_read::total            272528213                       # Total read bandwidth from this memory (bytes/s)
system.mem_ctrls0.bw_inst_read::.cpu.inst     41591724                       # Instruction read bandwidth from this memory (bytes/s)
system.mem_ctrls0.bw_inst_read::total        41591724                       # Instruction read bandwidth from this memory (bytes/s)
system.mem_ctrls0.bw_total::.cpu.inst        41591724                       # Total bandwidth to/from this memory (bytes/s)
system.mem_ctrls0.bw_total::.cpu.data       163338805                       # Total bandwidth to/from this memory (bytes/s)
system.mem_ctrls0.bw_total::.l2.prefetcher     67597684                       # Total bandwidth to/from this memory (bytes/s)
system.mem_ctrls0.bw_total::total           272528213                       # Total bandwidth to/from this memory (bytes/s)
system.mem_ctrls0.avgPriority_.cpu.inst::samples       467.00                       # Average QoS priority value for accepted requests
system.mem_ctrls0.avgPriority_.cpu.data::samples      1834.00                       # Average QoS priority value for accepted requests
system.mem_ctrls0.avgPriority_.l2.prefetcher::samples       759.00                       # Average QoS priority value for accepted requests
system.mem_ctrls0.priorityMinLatency     0.000000017492                       # per QoS priority minimum request to response latency (s)
system.mem_ctrls0.priorityMaxLatency     0.000001418485                       # per QoS priority maximum request to response latency (s)
system.mem_ctrls0.numReadWriteTurnArounds            0                       # Number of turnarounds from READ to WRITE
system.mem_ctrls0.numWriteReadTurnArounds            0                       # Number of turnarounds from WRITE to READ
system.mem_ctrls0.numStayReadState               6282                       # Number of times bus staying in READ state
system.mem_ctrls0.numStayWriteState                 0                       # Number of times bus staying in WRITE state
system.mem_ctrls0.readReqs                       3060                       # Number of read requests accepted
system.mem_ctrls0.writeReqs                         0                       # Number of write requests accepted
system.mem_ctrls0.readBursts                     3060                       # Number of DRAM read bursts, including those serviced by the write queue
system.mem_ctrls0.writeBursts                       0                       # Number of DRAM write bursts, including those merged in the write queue
system.mem_ctrls0.bytesReadDRAM                195840                       # Total number of bytes read from DRAM
system.mem_ctrls0.bytesReadWrQ                      0                       # Total number of bytes read from write queue
system.mem_ctrls0.bytesWritten                      0                       # Total number of bytes written to DRAM
system.mem_ctrls0.bytesReadSys                 195840                       # Total read bytes from the system interface side
system.mem_ctrls0.bytesWrittenSys                   0                       # Total written bytes from the system interface side
system.mem_ctrls0.servicedByWrQ                     0                       # Number of DRAM read bursts serviced by the write queue
system.mem_ctrls0.mergedWrBursts                    0                       # Number of DRAM write bursts merged with an existing one
system.mem_ctrls0.neitherReadNorWriteReqs            0                       # Number of requests that are neither read nor write
system.mem_ctrls0.perBankRdBursts::0               86                       # Per bank write bursts
system.mem_ctrls0.perBankRdBursts::1              144                       # Per bank write bursts
system.mem_ctrls0.perBankRdBursts::2              201                       # Per bank write bursts
system.mem_ctrls0.perBankRdBursts::3              127                       # Per bank write bursts
system.mem_ctrls0.perBankRdBursts::4              135                       # Per bank write bursts
system.mem_ctrls0.perBankRdBursts::5              113                       # Per bank write bursts
system.mem_ctrls0.perBankRdBursts::6               47                       # Per bank write bursts
system.mem_ctrls0.perBankRdBursts::7               78                       # Per bank write bursts
system.mem_ctrls0.perBankRdBursts::8              178                       # Per bank write bursts
system.mem_ctrls0.perBankRdBursts::9              194                       # Per bank write bursts
system.mem_ctrls0.perBankRdBursts::10              41                       # Per bank write bursts
system.mem_ctrls0.perBankRdBursts::11              20                       # Per bank write bursts
system.mem_ctrls0.perBankRdBursts::12              72                       # Per bank write bursts
system.mem_ctrls0.perBankRdBursts::13               3                       # Per bank write bursts
system.mem_ctrls0.perBankRdBursts::14               5                       # Per bank write bursts
system.mem_ctrls0.perBankRdBursts::15               1                       # Per bank write bursts
system.mem_ctrls0.perBankRdBursts::16               5                       # Per bank write bursts
system.mem_ctrls0.perBankRdBursts::17              16                       # Per bank write bursts
system.mem_ctrls0.perBankRdBursts::18              99                       # Per bank write bursts
system.mem_ctrls0.perBankRdBursts::19             131                       # Per bank write bursts
system.mem_ctrls0.perBankRdBursts::20             131                       # Per bank write bursts
system.mem_ctrls0.perBankRdBursts::21             131                       # Per bank write bursts
system.mem_ctrls0.perBankRdBursts::22              62                       # Per bank write bursts
system.mem_ctrls0.perBankRdBursts::23              91                       # Per bank write bursts
system.mem_ctrls0.perBankRdBursts::24             113                       # Per bank write bursts
system.mem_ctrls0.perBankRdBursts::25              94                       # Per bank write bursts
system.mem_ctrls0.perBankRdBursts::26             171                       # Per bank write bursts
system.mem_ctrls0.perBankRdBursts::27             150                       # Per bank write bursts
system.mem_ctrls0.perBankRdBursts::28             131                       # Per bank write bursts
system.mem_ctrls0.perBankRdBursts::29              39                       # Per bank write bursts
system.mem_ctrls0.perBankRdBursts::30             138                       # Per bank write bursts
system.mem_ctrls0.perBankRdBursts::31             113                       # Per bank write bursts
system.mem_ctrls0.perBankWrBursts::0                0                       # Per bank write bursts
system.mem_ctrls0.perBankWrBursts::1                0                       # Per bank write bursts
system.mem_ctrls0.perBankWrBursts::2                0                       # Per bank write bursts
system.mem_ctrls0.perBankWrBursts::3                0                       # Per bank write bursts
system.mem_ctrls0.perBankWrBursts::4                0                       # Per bank write bursts
system.mem_ctrls0.perBankWrBursts::5                0                       # Per bank write bursts
system.mem_ctrls0.perBankWrBursts::6                0                       # Per bank write bursts
system.mem_ctrls0.perBankWrBursts::7                0                       # Per bank write bursts
system.mem_ctrls0.perBankWrBursts::8                0                       # Per bank write bursts
system.mem_ctrls0.perBankWrBursts::9                0                       # Per bank write bursts
system.mem_ctrls0.perBankWrBursts::10               0                       # Per bank write bursts
system.mem_ctrls0.perBankWrBursts::11               0                       # Per bank write bursts
system.mem_ctrls0.perBankWrBursts::12               0                       # Per bank write bursts
system.mem_ctrls0.perBankWrBursts::13               0                       # Per bank write bursts
system.mem_ctrls0.perBankWrBursts::14               0                       # Per bank write bursts
system.mem_ctrls0.perBankWrBursts::15               0                       # Per bank write bursts
system.mem_ctrls0.perBankWrBursts::16               0                       # Per bank write bursts
system.mem_ctrls0.perBankWrBursts::17               0                       # Per bank write bursts
system.mem_ctrls0.perBankWrBursts::18               0                       # Per bank write bursts
system.mem_ctrls0.perBankWrBursts::19               0                       # Per bank write bursts
system.mem_ctrls0.perBankWrBursts::20               0                       # Per bank write bursts
system.mem_ctrls0.perBankWrBursts::21               0                       # Per bank write bursts
system.mem_ctrls0.perBankWrBursts::22               0                       # Per bank write bursts
system.mem_ctrls0.perBankWrBursts::23               0                       # Per bank write bursts
system.mem_ctrls0.perBankWrBursts::24               0                       # Per bank write bursts
system.mem_ctrls0.perBankWrBursts::25               0                       # Per bank write bursts
system.mem_ctrls0.perBankWrBursts::26               0                       # Per bank write bursts
system.mem_ctrls0.perBankWrBursts::27               0                       # Per bank write bursts
system.mem_ctrls0.perBankWrBursts::28               0                       # Per bank write bursts
system.mem_ctrls0.perBankWrBursts::29               0                       # Per bank write bursts
system.mem_ctrls0.perBankWrBursts::30               0                       # Per bank write bursts
system.mem_ctrls0.perBankWrBursts::31               0                       # Per bank write bursts
system.mem_ctrls0.numRdRetry                        0                       # Number of times read queue was full causing retry
system.mem_ctrls0.numWrRetry                        0                       # Number of times write queue was full causing retry
system.mem_ctrls0.totGap                    718293500                       # Total gap between requests
system.mem_ctrls0.readPktSize::0                    0                       # Read request sizes (log2)
system.mem_ctrls0.readPktSize::1                    0                       # Read request sizes (log2)
system.mem_ctrls0.readPktSize::2                    0                       # Read request sizes (log2)
system.mem_ctrls0.readPktSize::3                    0                       # Read request sizes (log2)
system.mem_ctrls0.readPktSize::4                    0                       # Read request sizes (log2)
system.mem_ctrls0.readPktSize::5                    0                       # Read request sizes (log2)
system.mem_ctrls0.readPktSize::6                 3060                       # Read request sizes (log2)
system.mem_ctrls0.writePktSize::0                   0                       # Write request sizes (log2)
system.mem_ctrls0.writePktSize::1                   0                       # Write request sizes (log2)
system.mem_ctrls0.writePktSize::2                   0                       # Write request sizes (log2)
system.mem_ctrls0.writePktSize::3                   0                       # Write request sizes (log2)
system.mem_ctrls0.writePktSize::4                   0                       # Write request sizes (log2)
system.mem_ctrls0.writePktSize::5                   0                       # Write request sizes (log2)
system.mem_ctrls0.writePktSize::6                   0                       # Write request sizes (log2)
system.mem_ctrls0.rdQLenPdf::0                   2365                       # What read queue length does an incoming req see
system.mem_ctrls0.rdQLenPdf::1                    412                       # What read queue length does an incoming req see
system.mem_ctrls0.rdQLenPdf::2                    122                       # What read queue length does an incoming req see
system.mem_ctrls0.rdQLenPdf::3                     88                       # What read queue length does an incoming req see
system.mem_ctrls0.rdQLenPdf::4                     47                       # What read queue length does an incoming req see
system.mem_ctrls0.rdQLenPdf::5                     17                       # What read queue length does an incoming req see
system.mem_ctrls0.rdQLenPdf::6                      7                       # What read queue length does an incoming req see
system.mem_ctrls0.rdQLenPdf::7                      1                       # What read queue length does an incoming req see
system.mem_ctrls0.rdQLenPdf::8                      1                       # What read queue length does an incoming req see
system.mem_ctrls0.rdQLenPdf::9                      0                       # What read queue length does an incoming req see
system.mem_ctrls0.rdQLenPdf::10                     0                       # What read queue length does an incoming req see
system.mem_ctrls0.rdQLenPdf::11                     0                       # What read queue length does an incoming req see
system.mem_ctrls0.rdQLenPdf::12                     0                       # What read queue length does an incoming req see
system.mem_ctrls0.rdQLenPdf::13                     0                       # What read queue length does an incoming req see
system.mem_ctrls0.rdQLenPdf::14                     0                       # What read queue length does an incoming req see
system.mem_ctrls0.rdQLenPdf::15                     0                       # What read queue length does an incoming req see
system.mem_ctrls0.rdQLenPdf::16                     0                       # What read queue length does an incoming req see
system.mem_ctrls0.rdQLenPdf::17                     0                       # What read queue length does an incoming req see
system.mem_ctrls0.rdQLenPdf::18                     0                       # What read queue length does an incoming req see
system.mem_ctrls0.rdQLenPdf::19                     0                       # What read queue length does an incoming req see
system.mem_ctrls0.rdQLenPdf::20                     0                       # What read queue length does an incoming req see
system.mem_ctrls0.rdQLenPdf::21                     0                       # What read queue length does an incoming req see
system.mem_ctrls0.rdQLenPdf::22                     0                       # What read queue length does an incoming req see
system.mem_ctrls0.rdQLenPdf::23                     0                       # What read queue length does an incoming req see
system.mem_ctrls0.rdQLenPdf::24                     0                       # What read queue length does an incoming req see
system.mem_ctrls0.rdQLenPdf::25                     0                       # What read queue length does an incoming req see
system.mem_ctrls0.rdQLenPdf::26                     0                       # What read queue length does an incoming req see
system.mem_ctrls0.rdQLenPdf::27                     0                       # What read queue length does an incoming req see
system.mem_ctrls0.rdQLenPdf::28                     0                       # What read queue length does an incoming req see
system.mem_ctrls0.rdQLenPdf::29                     0                       # What read queue length does an incoming req see
system.mem_ctrls0.rdQLenPdf::30                     0                       # What read queue length does an incoming req see
system.mem_ctrls0.rdQLenPdf::31                     0                       # What read queue length does an incoming req see
system.mem_ctrls0.rdQLenPdf::32                     0                       # What read queue length does an incoming req see
system.mem_ctrls0.rdQLenPdf::33                     0                       # What read queue length does an incoming req see
system.mem_ctrls0.rdQLenPdf::34                     0                       # What read queue length does an incoming req see
system.mem_ctrls0.rdQLenPdf::35                     0                       # What read queue length does an incoming req see
system.mem_ctrls0.rdQLenPdf::36                     0                       # What read queue length does an incoming req see
system.mem_ctrls0.rdQLenPdf::37                     0                       # What read queue length does an incoming req see
system.mem_ctrls0.rdQLenPdf::38                     0                       # What read queue length does an incoming req see
system.mem_ctrls0.rdQLenPdf::39                     0                       # What read queue length does an incoming req see
system.mem_ctrls0.rdQLenPdf::40                     0                       # What read queue length does an incoming req see
system.mem_ctrls0.rdQLenPdf::41                     0                       # What read queue length does an incoming req see
system.mem_ctrls0.rdQLenPdf::42                     0                       # What read queue length does an incoming req see
system.mem_ctrls0.rdQLenPdf::43                     0                       # What read queue length does an incoming req see
system.mem_ctrls0.rdQLenPdf::44                     0                       # What read queue length does an incoming req see
system.mem_ctrls0.rdQLenPdf::45                     0                       # What read queue length does an incoming req see
system.mem_ctrls0.rdQLenPdf::46                     0                       # What read queue length does an incoming req see
system.mem_ctrls0.rdQLenPdf::47                     0                       # What read queue length does an incoming req see
system.mem_ctrls0.rdQLenPdf::48                     0                       # What read queue length does an incoming req see
system.mem_ctrls0.rdQLenPdf::49                     0                       # What read queue length does an incoming req see
system.mem_ctrls0.rdQLenPdf::50                     0                       # What read queue length does an incoming req see
system.mem_ctrls0.rdQLenPdf::51                     0                       # What read queue length does an incoming req see
system.mem_ctrls0.rdQLenPdf::52                     0                       # What read queue length does an incoming req see
system.mem_ctrls0.rdQLenPdf::53                     0                       # What read queue length does an incoming req see
system.mem_ctrls0.rdQLenPdf::54                     0                       # What read queue length does an incoming req see
system.mem_ctrls0.rdQLenPdf::55                     0                       # What read queue length does an incoming req see
system.mem_ctrls0.rdQLenPdf::56                     0                       # What read queue length does an incoming req see
system.mem_ctrls0.rdQLenPdf::57                     0                       # What read queue length does an incoming req see
system.mem_ctrls0.rdQLenPdf::58                     0                       # What read queue length does an incoming req see
system.mem_ctrls0.rdQLenPdf::59                     0                       # What read queue length does an incoming req see
system.mem_ctrls0.rdQLenPdf::60                     0                       # What read queue length does an incoming req see
system.mem_ctrls0.rdQLenPdf::61                     0                       # What read queue length does an incoming req see
system.mem_ctrls0.rdQLenPdf::62                     0                       # What read queue length does an incoming req see
system.mem_ctrls0.rdQLenPdf::63                     0                       # What read queue length does an incoming req see
system.mem_ctrls0.wrQLenPdf::0                      0                       # What write queue length does an incoming req see
system.mem_ctrls0.wrQLenPdf::1                      0                       # What write queue length does an incoming req see
system.mem_ctrls0.wrQLenPdf::2                      0                       # What write queue length does an incoming req see
system.mem_ctrls0.wrQLenPdf::3                      0                       # What write queue length does an incoming req see
system.mem_ctrls0.wrQLenPdf::4                      0                       # What write queue length does an incoming req see
system.mem_ctrls0.wrQLenPdf::5                      0                       # What write queue length does an incoming req see
system.mem_ctrls0.wrQLenPdf::6                      0                       # What write queue length does an incoming req see
system.mem_ctrls0.wrQLenPdf::7                      0                       # What write queue length does an incoming req see
system.mem_ctrls0.wrQLenPdf::8                      0                       # What write queue length does an incoming req see
system.mem_ctrls0.wrQLenPdf::9                      0                       # What write queue length does an incoming req see
system.mem_ctrls0.wrQLenPdf::10                     0                       # What write queue length does an incoming req see
system.mem_ctrls0.wrQLenPdf::11                     0                       # What write queue length does an incoming req see
system.mem_ctrls0.wrQLenPdf::12                     0                       # What write queue length does an incoming req see
system.mem_ctrls0.wrQLenPdf::13                     0                       # What write queue length does an incoming req see
system.mem_ctrls0.wrQLenPdf::14                     0                       # What write queue length does an incoming req see
system.mem_ctrls0.wrQLenPdf::15                     0                       # What write queue length does an incoming req see
system.mem_ctrls0.wrQLenPdf::16                     0                       # What write queue length does an incoming req see
system.mem_ctrls0.wrQLenPdf::17                     0                       # What write queue length does an incoming req see
system.mem_ctrls0.wrQLenPdf::18                     0                       # What write queue length does an incoming req see
system.mem_ctrls0.wrQLenPdf::19                     0                       # What write queue length does an incoming req see
system.mem_ctrls0.wrQLenPdf::20                     0                       # What write queue length does an incoming req see
system.mem_ctrls0.wrQLenPdf::21                     0                       # What write queue length does an incoming req see
system.mem_ctrls0.wrQLenPdf::22                     0                       # What write queue length does an incoming req see
system.mem_ctrls0.wrQLenPdf::23                     0                       # What write queue length does an incoming req see
system.mem_ctrls0.wrQLenPdf::24                     0                       # What write queue length does an incoming req see
system.mem_ctrls0.wrQLenPdf::25                     0                       # What write queue length does an incoming req see
system.mem_ctrls0.wrQLenPdf::26                     0                       # What write queue length does an incoming req see
system.mem_ctrls0.wrQLenPdf::27                     0                       # What write queue length does an incoming req see
system.mem_ctrls0.wrQLenPdf::28                     0                       # What write queue length does an incoming req see
system.mem_ctrls0.wrQLenPdf::29                     0                       # What write queue length does an incoming req see
system.mem_ctrls0.wrQLenPdf::30                     0                       # What write queue length does an incoming req see
system.mem_ctrls0.wrQLenPdf::31                     0                       # What write queue length does an incoming req see
system.mem_ctrls0.wrQLenPdf::32                     0                       # What write queue length does an incoming req see
system.mem_ctrls0.wrQLenPdf::33                     0                       # What write queue length does an incoming req see
system.mem_ctrls0.wrQLenPdf::34                     0                       # What write queue length does an incoming req see
system.mem_ctrls0.wrQLenPdf::35                     0                       # What write queue length does an incoming req see
system.mem_ctrls0.wrQLenPdf::36                     0                       # What write queue length does an incoming req see
system.mem_ctrls0.wrQLenPdf::37                     0                       # What write queue length does an incoming req see
system.mem_ctrls0.wrQLenPdf::38                     0                       # What write queue length does an incoming req see
system.mem_ctrls0.wrQLenPdf::39                     0                       # What write queue length does an incoming req see
system.mem_ctrls0.wrQLenPdf::40                     0                       # What write queue length does an incoming req see
system.mem_ctrls0.wrQLenPdf::41                     0                       # What write queue length does an incoming req see
system.mem_ctrls0.wrQLenPdf::42                     0                       # What write queue length does an incoming req see
system.mem_ctrls0.wrQLenPdf::43                     0                       # What write queue length does an incoming req see
system.mem_ctrls0.wrQLenPdf::44                     0                       # What write queue length does an incoming req see
system.mem_ctrls0.wrQLenPdf::45                     0                       # What write queue length does an incoming req see
system.mem_ctrls0.wrQLenPdf::46                     0                       # What write queue length does an incoming req see
system.mem_ctrls0.wrQLenPdf::47                     0                       # What write queue length does an incoming req see
system.mem_ctrls0.wrQLenPdf::48                     0                       # What write queue length does an incoming req see
system.mem_ctrls0.wrQLenPdf::49                     0                       # What write queue length does an incoming req see
system.mem_ctrls0.wrQLenPdf::50                     0                       # What write queue length does an incoming req see
system.mem_ctrls0.wrQLenPdf::51                     0                       # What write queue length does an incoming req see
system.mem_ctrls0.wrQLenPdf::52                     0                       # What write queue length does an incoming req see
system.mem_ctrls0.wrQLenPdf::53                     0                       # What write queue length does an incoming req see
system.mem_ctrls0.wrQLenPdf::54                     0                       # What write queue length does an incoming req see
system.mem_ctrls0.wrQLenPdf::55                     0                       # What write queue length does an incoming req see
system.mem_ctrls0.wrQLenPdf::56                     0                       # What write queue length does an incoming req see
system.mem_ctrls0.wrQLenPdf::57                     0                       # What write queue length does an incoming req see
system.mem_ctrls0.wrQLenPdf::58                     0                       # What write queue length does an incoming req see
system.mem_ctrls0.wrQLenPdf::59                     0                       # What write queue length does an incoming req see
system.mem_ctrls0.wrQLenPdf::60                     0                       # What write queue length does an incoming req see
system.mem_ctrls0.wrQLenPdf::61                     0                       # What write queue length does an incoming req see
system.mem_ctrls0.wrQLenPdf::62                     0                       # What write queue length does an incoming req see
system.mem_ctrls0.wrQLenPdf::63                     0                       # What write queue length does an incoming req see
system.mem_ctrls0.wrQLenPdf::64                     0                       # What write queue length does an incoming req see
system.mem_ctrls0.wrQLenPdf::65                     0                       # What write queue length does an incoming req see
system.mem_ctrls0.wrQLenPdf::66                     0                       # What write queue length does an incoming req see
system.mem_ctrls0.wrQLenPdf::67                     0                       # What write queue length does an incoming req see
system.mem_ctrls0.wrQLenPdf::68                     0                       # What write queue length does an incoming req see
system.mem_ctrls0.wrQLenPdf::69                     0                       # What write queue length does an incoming req see
system.mem_ctrls0.wrQLenPdf::70                     0                       # What write queue length does an incoming req see
system.mem_ctrls0.wrQLenPdf::71                     0                       # What write queue length does an incoming req see
system.mem_ctrls0.wrQLenPdf::72                     0                       # What write queue length does an incoming req see
system.mem_ctrls0.wrQLenPdf::73                     0                       # What write queue length does an incoming req see
system.mem_ctrls0.wrQLenPdf::74                     0                       # What write queue length does an incoming req see
system.mem_ctrls0.wrQLenPdf::75                     0                       # What write queue length does an incoming req see
system.mem_ctrls0.wrQLenPdf::76                     0                       # What write queue length does an incoming req see
system.mem_ctrls0.wrQLenPdf::77                     0                       # What write queue length does an incoming req see
system.mem_ctrls0.wrQLenPdf::78                     0                       # What write queue length does an incoming req see
system.mem_ctrls0.wrQLenPdf::79                     0                       # What write queue length does an incoming req see
system.mem_ctrls0.wrQLenPdf::80                     0                       # What write queue length does an incoming req see
system.mem_ctrls0.wrQLenPdf::81                     0                       # What write queue length does an incoming req see
system.mem_ctrls0.wrQLenPdf::82                     0                       # What write queue length does an incoming req see
system.mem_ctrls0.wrQLenPdf::83                     0                       # What write queue length does an incoming req see
system.mem_ctrls0.wrQLenPdf::84                     0                       # What write queue length does an incoming req see
system.mem_ctrls0.wrQLenPdf::85                     0                       # What write queue length does an incoming req see
system.mem_ctrls0.wrQLenPdf::86                     0                       # What write queue length does an incoming req see
system.mem_ctrls0.wrQLenPdf::87                     0                       # What write queue length does an incoming req see
system.mem_ctrls0.wrQLenPdf::88                     0                       # What write queue length does an incoming req see
system.mem_ctrls0.wrQLenPdf::89                     0                       # What write queue length does an incoming req see
system.mem_ctrls0.wrQLenPdf::90                     0                       # What write queue length does an incoming req see
system.mem_ctrls0.wrQLenPdf::91                     0                       # What write queue length does an incoming req see
system.mem_ctrls0.wrQLenPdf::92                     0                       # What write queue length does an incoming req see
system.mem_ctrls0.wrQLenPdf::93                     0                       # What write queue length does an incoming req see
system.mem_ctrls0.wrQLenPdf::94                     0                       # What write queue length does an incoming req see
system.mem_ctrls0.wrQLenPdf::95                     0                       # What write queue length does an incoming req see
system.mem_ctrls0.wrQLenPdf::96                     0                       # What write queue length does an incoming req see
system.mem_ctrls0.wrQLenPdf::97                     0                       # What write queue length does an incoming req see
system.mem_ctrls0.wrQLenPdf::98                     0                       # What write queue length does an incoming req see
system.mem_ctrls0.wrQLenPdf::99                     0                       # What write queue length does an incoming req see
system.mem_ctrls0.wrQLenPdf::100                    0                       # What write queue length does an incoming req see
system.mem_ctrls0.wrQLenPdf::101                    0                       # What write queue length does an incoming req see
system.mem_ctrls0.wrQLenPdf::102                    0                       # What write queue length does an incoming req see
system.mem_ctrls0.wrQLenPdf::103                    0                       # What write queue length does an incoming req see
system.mem_ctrls0.wrQLenPdf::104                    0                       # What write queue length does an incoming req see
system.mem_ctrls0.wrQLenPdf::105                    0                       # What write queue length does an incoming req see
system.mem_ctrls0.wrQLenPdf::106                    0                       # What write queue length does an incoming req see
system.mem_ctrls0.wrQLenPdf::107                    0                       # What write queue length does an incoming req see
system.mem_ctrls0.wrQLenPdf::108                    0                       # What write queue length does an incoming req see
system.mem_ctrls0.wrQLenPdf::109                    0                       # What write queue length does an incoming req see
system.mem_ctrls0.wrQLenPdf::110                    0                       # What write queue length does an incoming req see
system.mem_ctrls0.wrQLenPdf::111                    0                       # What write queue length does an incoming req see
system.mem_ctrls0.wrQLenPdf::112                    0                       # What write queue length does an incoming req see
system.mem_ctrls0.wrQLenPdf::113                    0                       # What write queue length does an incoming req see
system.mem_ctrls0.wrQLenPdf::114                    0                       # What write queue length does an incoming req see
system.mem_ctrls0.wrQLenPdf::115                    0                       # What write queue length does an incoming req see
system.mem_ctrls0.wrQLenPdf::116                    0                       # What write queue length does an incoming req see
system.mem_ctrls0.wrQLenPdf::117                    0                       # What write queue length does an incoming req see
system.mem_ctrls0.wrQLenPdf::118                    0                       # What write queue length does an incoming req see
system.mem_ctrls0.wrQLenPdf::119                    0                       # What write queue length does an incoming req see
system.mem_ctrls0.wrQLenPdf::120                    0                       # What write queue length does an incoming req see
system.mem_ctrls0.wrQLenPdf::121                    0                       # What write queue length does an incoming req see
system.mem_ctrls0.wrQLenPdf::122                    0                       # What write queue length does an incoming req see
system.mem_ctrls0.wrQLenPdf::123                    0                       # What write queue length does an incoming req see
system.mem_ctrls0.wrQLenPdf::124                    0                       # What write queue length does an incoming req see
system.mem_ctrls0.wrQLenPdf::125                    0                       # What write queue length does an incoming req see
system.mem_ctrls0.wrQLenPdf::126                    0                       # What write queue length does an incoming req see
system.mem_ctrls0.wrQLenPdf::127                    0                       # What write queue length does an incoming req see
system.mem_ctrls0.bytesPerActivate::samples          875                       # Bytes accessed per row activation
system.mem_ctrls0.bytesPerActivate::mean   223.524571                       # Bytes accessed per row activation
system.mem_ctrls0.bytesPerActivate::gmean   144.022771                       # Bytes accessed per row activation
system.mem_ctrls0.bytesPerActivate::stdev   252.875224                       # Bytes accessed per row activation
system.mem_ctrls0.bytesPerActivate::0-127          366     41.83%     41.83% # Bytes accessed per row activation
system.mem_ctrls0.bytesPerActivate::128-255          266     30.40%     72.23% # Bytes accessed per row activation
system.mem_ctrls0.bytesPerActivate::256-383           85      9.71%     81.94% # Bytes accessed per row activation
system.mem_ctrls0.bytesPerActivate::384-511           55      6.29%     88.23% # Bytes accessed per row activation
system.mem_ctrls0.bytesPerActivate::512-639           28      3.20%     91.43% # Bytes accessed per row activation
system.mem_ctrls0.bytesPerActivate::640-767           10      1.14%     92.57% # Bytes accessed per row activation
system.mem_ctrls0.bytesPerActivate::768-895            9      1.03%     93.60% # Bytes accessed per row activation
system.mem_ctrls0.bytesPerActivate::896-1023            8      0.91%     94.51% # Bytes accessed per row activation
system.mem_ctrls0.bytesPerActivate::1024-1151           48      5.49%    100.00% # Bytes accessed per row activation
system.mem_ctrls0.bytesPerActivate::total          875                       # Bytes accessed per row activation
system.mem_ctrls0.masterReadBytes::.cpu.inst        29888                       # Per-master bytes read from memory
system.mem_ctrls0.masterReadBytes::.cpu.data       117376                       # Per-master bytes read from memory
system.mem_ctrls0.masterReadBytes::.l2.prefetcher        48576                       # Per-master bytes read from memory
system.mem_ctrls0.masterReadRate::.cpu.inst 41591723.959424130619                       # Per-master bytes read from memory rate (Bytes/sec)
system.mem_ctrls0.masterReadRate::.cpu.data 163338804.585832685232                       # Per-master bytes read from memory rate (Bytes/sec)
system.mem_ctrls0.masterReadRate::.l2.prefetcher 67597684.122490182519                       # Per-master bytes read from memory rate (Bytes/sec)
system.mem_ctrls0.masterReadAccesses::.cpu.inst          467                       # Per-master read serviced memory accesses
system.mem_ctrls0.masterReadAccesses::.cpu.data         1834                       # Per-master read serviced memory accesses
system.mem_ctrls0.masterReadAccesses::.l2.prefetcher          759                       # Per-master read serviced memory accesses
system.mem_ctrls0.masterReadTotalLat::.cpu.inst     14176364                       # Per-master read total memory access latency
system.mem_ctrls0.masterReadTotalLat::.cpu.data     71256125                       # Per-master read total memory access latency
system.mem_ctrls0.masterReadTotalLat::.l2.prefetcher     28569960                       # Per-master read total memory access latency
system.mem_ctrls0.masterReadAvgLat::.cpu.inst     30356.24                       # Per-master read average memory access latency
system.mem_ctrls0.masterReadAvgLat::.cpu.data     38852.85                       # Per-master read average memory access latency
system.mem_ctrls0.masterReadAvgLat::.l2.prefetcher     37641.58                       # Per-master read average memory access latency
system.mem_ctrls0.totQLat                    60476929                       # Total ticks spent queuing
system.mem_ctrls0.totMemAccLat              114002449                       # Total ticks spent from burst creation until serviced by the DRAM
system.mem_ctrls0.totBusLat                  10195920                       # Total ticks spent in databus transfers
system.mem_ctrls0.avgQLat                    19763.70                       # Average queueing delay per DRAM burst
system.mem_ctrls0.avgBusLat                   3332.00                       # Average bus latency per DRAM burst
system.mem_ctrls0.avgMemAccLat               37255.70                       # Average memory access latency per DRAM burst
system.mem_ctrls0.avgRdBW                      272.53                       # Average DRAM read bandwidth in MiByte/s
system.mem_ctrls0.avgWrBW                        0.00                       # Average achieved write bandwidth in MiByte/s
system.mem_ctrls0.avgRdBWSys                   272.53                       # Average system read bandwidth in MiByte/s
system.mem_ctrls0.avgWrBWSys                     0.00                       # Average system write bandwidth in MiByte/s
system.mem_ctrls0.peakBW                     19207.00                       # Theoretical peak bandwidth in MiByte/s
system.mem_ctrls0.busUtil                        1.42                       # Data bus utilization in percentage
system.mem_ctrls0.busUtilRead                    1.42                       # Data bus utilization in percentage for reads
system.mem_ctrls0.busUtilWrite                   0.00                       # Data bus utilization in percentage for writes
system.mem_ctrls0.avgRdQLen                      1.19                       # Average read queue length when enqueuing
system.mem_ctrls0.avgWrQLen                      0.00                       # Average write queue length when enqueuing
system.mem_ctrls0.readRowHits                    2181                       # Number of row buffer hits during reads
system.mem_ctrls0.writeRowHits                      0                       # Number of row buffer hits during writes
system.mem_ctrls0.readRowHitRate                71.27                       # Row buffer hit rate for reads
system.mem_ctrls0.writeRowHitRate                 nan                       # Row buffer hit rate for writes
system.mem_ctrls0.avgGap                    234736.44                       # Average gap between requests
system.mem_ctrls0.pageHitRate                   71.27                       # Row buffer hit rate, read and write combined
system.mem_ctrls0_0.actEnergy            1119631.968000                       # Energy for activate commands per rank (pJ)
system.mem_ctrls0_0.preEnergy            1484390.006400                       # Energy for precharge commands per rank (pJ)
system.mem_ctrls0_0.readEnergy           6078127.776000                       # Energy for read commands per rank (pJ)
system.mem_ctrls0_0.writeEnergy                     0                       # Energy for write commands per rank (pJ)
system.mem_ctrls0_0.refreshEnergy        124683986.448000                       # Energy for refresh commands per rank (pJ)
system.mem_ctrls0_0.actBackEnergy        55862917.891200                       # Energy for active background per rank (pJ)
system.mem_ctrls0_0.preBackEnergy        2613961.996800                       # Energy for precharge background per rank (pJ)
system.mem_ctrls0_0.actPowerDownEnergy   344520568.627200                       # Energy for active power-down per rank (pJ)
system.mem_ctrls0_0.prePowerDownEnergy   35559770.400000                       # Energy for precharge power-down per rank (pJ)
system.mem_ctrls0_0.selfRefreshEnergy    10443844.790400                       # Energy for self refresh per rank (pJ)
system.mem_ctrls0_0.totalEnergy          582367199.904000                       # Total energy per rank (pJ)
system.mem_ctrls0_0.averagePower           810.414073                       # Core power per rank (mW)
system.mem_ctrls0_0.totalIdleTime           646089632                       # Total Idle time Per DRAM Rank
system.mem_ctrls0_0.memoryStateTime::IDLE      1387000                       # Time in different power states
system.mem_ctrls0_0.memoryStateTime::REF     31500000                       # Time in different power states
system.mem_ctrls0_0.memoryStateTime::SREF     14023040                       # Time in different power states
system.mem_ctrls0_0.memoryStateTime::PRE_PDN     74086192                       # Time in different power states
system.mem_ctrls0_0.memoryStateTime::ACT     36872653                       # Time in different power states
system.mem_ctrls0_0.memoryStateTime::ACT_PDN    560735615                       # Time in different power states
system.mem_ctrls0_1.actEnergy            1621751.040000                       # Energy for activate commands per rank (pJ)
system.mem_ctrls0_1.preEnergy            2143658.193600                       # Energy for precharge commands per rank (pJ)
system.mem_ctrls0_1.readEnergy           6793201.632000                       # Energy for read commands per rank (pJ)
system.mem_ctrls0_1.writeEnergy                     0                       # Energy for write commands per rank (pJ)
system.mem_ctrls0_1.refreshEnergy        124683986.448000                       # Energy for refresh commands per rank (pJ)
system.mem_ctrls0_1.actBackEnergy        60526771.603200                       # Energy for active background per rank (pJ)
system.mem_ctrls0_1.preBackEnergy        7331818.099200                       # Energy for precharge background per rank (pJ)
system.mem_ctrls0_1.actPowerDownEnergy   351029579.980800                       # Energy for active power-down per rank (pJ)
system.mem_ctrls0_1.prePowerDownEnergy   23279084.640000                       # Energy for precharge power-down per rank (pJ)
system.mem_ctrls0_1.selfRefreshEnergy    10570342.171200                       # Energy for self refresh per rank (pJ)
system.mem_ctrls0_1.totalEnergy          587980193.808000                       # Total energy per rank (pJ)
system.mem_ctrls0_1.averagePower           818.225037                       # Core power per rank (mW)
system.mem_ctrls0_1.totalIdleTime           636011688                       # Total Idle time Per DRAM Rank
system.mem_ctrls0_1.memoryStateTime::IDLE      8665840                       # Time in different power states
system.mem_ctrls0_1.memoryStateTime::REF     31500000                       # Time in different power states
system.mem_ctrls0_1.memoryStateTime::SREF     16296320                       # Time in different power states
system.mem_ctrls0_1.memoryStateTime::PRE_PDN     48498604                       # Time in different power states
system.mem_ctrls0_1.memoryStateTime::ACT     42290624                       # Time in different power states
system.mem_ctrls0_1.memoryStateTime::ACT_PDN    571353112                       # Time in different power states
system.mem_ctrls1.pwrStateResidencyTicks::UNDEFINED    718604500                       # Cumulative time (in ticks) in various power states
system.mem_ctrls1.bytes_read::.cpu.inst         30336                       # Number of bytes read from this memory
system.mem_ctrls1.bytes_read::.cpu.data        118272                       # Number of bytes read from this memory
system.mem_ctrls1.bytes_read::.l2.prefetcher        47936                       # Number of bytes read from this memory
system.mem_ctrls1.bytes_read::total            196544                       # Number of bytes read from this memory
system.mem_ctrls1.bytes_inst_read::.cpu.inst        30336                       # Number of instructions bytes read from this memory
system.mem_ctrls1.bytes_inst_read::total        30336                       # Number of instructions bytes read from this memory
system.mem_ctrls1.num_reads::.cpu.inst            474                       # Number of read requests responded to by this memory
system.mem_ctrls1.num_reads::.cpu.data           1848                       # Number of read requests responded to by this memory
system.mem_ctrls1.num_reads::.l2.prefetcher          749                       # Number of read requests responded to by this memory
system.mem_ctrls1.num_reads::total               3071                       # Number of read requests responded to by this memory
system.mem_ctrls1.bw_read::.cpu.inst         42215155                       # Total read bandwidth from this memory (bytes/s)
system.mem_ctrls1.bw_read::.cpu.data        164585666                       # Total read bandwidth from this memory (bytes/s)
system.mem_ctrls1.bw_read::.l2.prefetcher     66707069                       # Total read bandwidth from this memory (bytes/s)
system.mem_ctrls1.bw_read::total            273507889                       # Total read bandwidth from this memory (bytes/s)
system.mem_ctrls1.bw_inst_read::.cpu.inst     42215155                       # Instruction read bandwidth from this memory (bytes/s)
system.mem_ctrls1.bw_inst_read::total        42215155                       # Instruction read bandwidth from this memory (bytes/s)
system.mem_ctrls1.bw_total::.cpu.inst        42215155                       # Total bandwidth to/from this memory (bytes/s)
system.mem_ctrls1.bw_total::.cpu.data       164585666                       # Total bandwidth to/from this memory (bytes/s)
system.mem_ctrls1.bw_total::.l2.prefetcher     66707069                       # Total bandwidth to/from this memory (bytes/s)
system.mem_ctrls1.bw_total::total           273507889                       # Total bandwidth to/from this memory (bytes/s)
system.mem_ctrls1.avgPriority_.cpu.inst::samples       474.00                       # Average QoS priority value for accepted requests
system.mem_ctrls1.avgPriority_.cpu.data::samples      1848.00                       # Average QoS priority value for accepted requests
system.mem_ctrls1.avgPriority_.l2.prefetcher::samples       749.00                       # Average QoS priority value for accepted requests
system.mem_ctrls1.priorityMinLatency     0.000000017492                       # per QoS priority minimum request to response latency (s)
system.mem_ctrls1.priorityMaxLatency     0.000001420485                       # per QoS priority maximum request to response latency (s)
system.mem_ctrls1.numReadWriteTurnArounds            0                       # Number of turnarounds from READ to WRITE
system.mem_ctrls1.numWriteReadTurnArounds            0                       # Number of turnarounds from WRITE to READ
system.mem_ctrls1.numStayReadState               6287                       # Number of times bus staying in READ state
system.mem_ctrls1.numStayWriteState                 0                       # Number of times bus staying in WRITE state
system.mem_ctrls1.readReqs                       3071                       # Number of read requests accepted
system.mem_ctrls1.writeReqs                         0                       # Number of write requests accepted
system.mem_ctrls1.readBursts                     3071                       # Number of DRAM read bursts, including those serviced by the write queue
system.mem_ctrls1.writeBursts                       0                       # Number of DRAM write bursts, including those merged in the write queue
system.mem_ctrls1.bytesReadDRAM                196544                       # Total number of bytes read from DRAM
system.mem_ctrls1.bytesReadWrQ                      0                       # Total number of bytes read from write queue
system.mem_ctrls1.bytesWritten                      0                       # Total number of bytes written to DRAM
system.mem_ctrls1.bytesReadSys                 196544                       # Total read bytes from the system interface side
system.mem_ctrls1.bytesWrittenSys                   0                       # Total written bytes from the system interface side
system.mem_ctrls1.servicedByWrQ                     0                       # Number of DRAM read bursts serviced by the write queue
system.mem_ctrls1.mergedWrBursts                    0                       # Number of DRAM write bursts merged with an existing one
system.mem_ctrls1.neitherReadNorWriteReqs            0                       # Number of requests that are neither read nor write
system.mem_ctrls1.perBankRdBursts::0               97                       # Per bank write bursts
system.mem_ctrls1.perBankRdBursts::1              139                       # Per bank write bursts
system.mem_ctrls1.perBankRdBursts::2              207                       # Per bank write bursts
system.mem_ctrls1.perBankRdBursts::3              121                       # Per bank write bursts
system.mem_ctrls1.perBankRdBursts::4              133                       # Per bank write bursts
system.mem_ctrls1.perBankRdBursts::5              114                       # Per bank write bursts
system.mem_ctrls1.perBankRdBursts::6               42                       # Per bank write bursts
system.mem_ctrls1.perBankRdBursts::7               83                       # Per bank write bursts
system.mem_ctrls1.perBankRdBursts::8              189                       # Per bank write bursts
system.mem_ctrls1.perBankRdBursts::9              187                       # Per bank write bursts
system.mem_ctrls1.perBankRdBursts::10              38                       # Per bank write bursts
system.mem_ctrls1.perBankRdBursts::11              21                       # Per bank write bursts
system.mem_ctrls1.perBankRdBursts::12              77                       # Per bank write bursts
system.mem_ctrls1.perBankRdBursts::13               0                       # Per bank write bursts
system.mem_ctrls1.perBankRdBursts::14               7                       # Per bank write bursts
system.mem_ctrls1.perBankRdBursts::15              10                       # Per bank write bursts
system.mem_ctrls1.perBankRdBursts::16               9                       # Per bank write bursts
system.mem_ctrls1.perBankRdBursts::17              17                       # Per bank write bursts
system.mem_ctrls1.perBankRdBursts::18             100                       # Per bank write bursts
system.mem_ctrls1.perBankRdBursts::19             134                       # Per bank write bursts
system.mem_ctrls1.perBankRdBursts::20             130                       # Per bank write bursts
system.mem_ctrls1.perBankRdBursts::21             133                       # Per bank write bursts
system.mem_ctrls1.perBankRdBursts::22              61                       # Per bank write bursts
system.mem_ctrls1.perBankRdBursts::23              86                       # Per bank write bursts
system.mem_ctrls1.perBankRdBursts::24             119                       # Per bank write bursts
system.mem_ctrls1.perBankRdBursts::25              97                       # Per bank write bursts
system.mem_ctrls1.perBankRdBursts::26             160                       # Per bank write bursts
system.mem_ctrls1.perBankRdBursts::27             150                       # Per bank write bursts
system.mem_ctrls1.perBankRdBursts::28             128                       # Per bank write bursts
system.mem_ctrls1.perBankRdBursts::29              42                       # Per bank write bursts
system.mem_ctrls1.perBankRdBursts::30             133                       # Per bank write bursts
system.mem_ctrls1.perBankRdBursts::31             107                       # Per bank write bursts
system.mem_ctrls1.perBankWrBursts::0                0                       # Per bank write bursts
system.mem_ctrls1.perBankWrBursts::1                0                       # Per bank write bursts
system.mem_ctrls1.perBankWrBursts::2                0                       # Per bank write bursts
system.mem_ctrls1.perBankWrBursts::3                0                       # Per bank write bursts
system.mem_ctrls1.perBankWrBursts::4                0                       # Per bank write bursts
system.mem_ctrls1.perBankWrBursts::5                0                       # Per bank write bursts
system.mem_ctrls1.perBankWrBursts::6                0                       # Per bank write bursts
system.mem_ctrls1.perBankWrBursts::7                0                       # Per bank write bursts
system.mem_ctrls1.perBankWrBursts::8                0                       # Per bank write bursts
system.mem_ctrls1.perBankWrBursts::9                0                       # Per bank write bursts
system.mem_ctrls1.perBankWrBursts::10               0                       # Per bank write bursts
system.mem_ctrls1.perBankWrBursts::11               0                       # Per bank write bursts
system.mem_ctrls1.perBankWrBursts::12               0                       # Per bank write bursts
system.mem_ctrls1.perBankWrBursts::13               0                       # Per bank write bursts
system.mem_ctrls1.perBankWrBursts::14               0                       # Per bank write bursts
system.mem_ctrls1.perBankWrBursts::15               0                       # Per bank write bursts
system.mem_ctrls1.perBankWrBursts::16               0                       # Per bank write bursts
system.mem_ctrls1.perBankWrBursts::17               0                       # Per bank write bursts
system.mem_ctrls1.perBankWrBursts::18               0                       # Per bank write bursts
system.mem_ctrls1.perBankWrBursts::19               0                       # Per bank write bursts
system.mem_ctrls1.perBankWrBursts::20               0                       # Per bank write bursts
system.mem_ctrls1.perBankWrBursts::21               0                       # Per bank write bursts
system.mem_ctrls1.perBankWrBursts::22               0                       # Per bank write bursts
system.mem_ctrls1.perBankWrBursts::23               0                       # Per bank write bursts
system.mem_ctrls1.perBankWrBursts::24               0                       # Per bank write bursts
system.mem_ctrls1.perBankWrBursts::25               0                       # Per bank write bursts
system.mem_ctrls1.perBankWrBursts::26               0                       # Per bank write bursts
system.mem_ctrls1.perBankWrBursts::27               0                       # Per bank write bursts
system.mem_ctrls1.perBankWrBursts::28               0                       # Per bank write bursts
system.mem_ctrls1.perBankWrBursts::29               0                       # Per bank write bursts
system.mem_ctrls1.perBankWrBursts::30               0                       # Per bank write bursts
system.mem_ctrls1.perBankWrBursts::31               0                       # Per bank write bursts
system.mem_ctrls1.numRdRetry                        0                       # Number of times read queue was full causing retry
system.mem_ctrls1.numWrRetry                        0                       # Number of times write queue was full causing retry
system.mem_ctrls1.totGap                    718226500                       # Total gap between requests
system.mem_ctrls1.readPktSize::0                    0                       # Read request sizes (log2)
system.mem_ctrls1.readPktSize::1                    0                       # Read request sizes (log2)
system.mem_ctrls1.readPktSize::2                    0                       # Read request sizes (log2)
system.mem_ctrls1.readPktSize::3                    0                       # Read request sizes (log2)
system.mem_ctrls1.readPktSize::4                    0                       # Read request sizes (log2)
system.mem_ctrls1.readPktSize::5                    0                       # Read request sizes (log2)
system.mem_ctrls1.readPktSize::6                 3071                       # Read request sizes (log2)
system.mem_ctrls1.writePktSize::0                   0                       # Write request sizes (log2)
system.mem_ctrls1.writePktSize::1                   0                       # Write request sizes (log2)
system.mem_ctrls1.writePktSize::2                   0                       # Write request sizes (log2)
system.mem_ctrls1.writePktSize::3                   0                       # Write request sizes (log2)
system.mem_ctrls1.writePktSize::4                   0                       # Write request sizes (log2)
system.mem_ctrls1.writePktSize::5                   0                       # Write request sizes (log2)
system.mem_ctrls1.writePktSize::6                   0                       # Write request sizes (log2)
system.mem_ctrls1.rdQLenPdf::0                   2383                       # What read queue length does an incoming req see
system.mem_ctrls1.rdQLenPdf::1                    413                       # What read queue length does an incoming req see
system.mem_ctrls1.rdQLenPdf::2                    133                       # What read queue length does an incoming req see
system.mem_ctrls1.rdQLenPdf::3                     83                       # What read queue length does an incoming req see
system.mem_ctrls1.rdQLenPdf::4                     47                       # What read queue length does an incoming req see
system.mem_ctrls1.rdQLenPdf::5                     10                       # What read queue length does an incoming req see
system.mem_ctrls1.rdQLenPdf::6                      2                       # What read queue length does an incoming req see
system.mem_ctrls1.rdQLenPdf::7                      0                       # What read queue length does an incoming req see
system.mem_ctrls1.rdQLenPdf::8                      0                       # What read queue length does an incoming req see
system.mem_ctrls1.rdQLenPdf::9                      0                       # What read queue length does an incoming req see
system.mem_ctrls1.rdQLenPdf::10                     0                       # What read queue length does an incoming req see
system.mem_ctrls1.rdQLenPdf::11                     0                       # What read queue length does an incoming req see
system.mem_ctrls1.rdQLenPdf::12                     0                       # What read queue length does an incoming req see
system.mem_ctrls1.rdQLenPdf::13                     0                       # What read queue length does an incoming req see
system.mem_ctrls1.rdQLenPdf::14                     0                       # What read queue length does an incoming req see
system.mem_ctrls1.rdQLenPdf::15                     0                       # What read queue length does an incoming req see
system.mem_ctrls1.rdQLenPdf::16                     0                       # What read queue length does an incoming req see
system.mem_ctrls1.rdQLenPdf::17                     0                       # What read queue length does an incoming req see
system.mem_ctrls1.rdQLenPdf::18                     0                       # What read queue length does an incoming req see
system.mem_ctrls1.rdQLenPdf::19                     0                       # What read queue length does an incoming req see
system.mem_ctrls1.rdQLenPdf::20                     0                       # What read queue length does an incoming req see
system.mem_ctrls1.rdQLenPdf::21                     0                       # What read queue length does an incoming req see
system.mem_ctrls1.rdQLenPdf::22                     0                       # What read queue length does an incoming req see
system.mem_ctrls1.rdQLenPdf::23                     0                       # What read queue length does an incoming req see
system.mem_ctrls1.rdQLenPdf::24                     0                       # What read queue length does an incoming req see
system.mem_ctrls1.rdQLenPdf::25                     0                       # What read queue length does an incoming req see
system.mem_ctrls1.rdQLenPdf::26                     0                       # What read queue length does an incoming req see
system.mem_ctrls1.rdQLenPdf::27                     0                       # What read queue length does an incoming req see
system.mem_ctrls1.rdQLenPdf::28                     0                       # What read queue length does an incoming req see
system.mem_ctrls1.rdQLenPdf::29                     0                       # What read queue length does an incoming req see
system.mem_ctrls1.rdQLenPdf::30                     0                       # What read queue length does an incoming req see
system.mem_ctrls1.rdQLenPdf::31                     0                       # What read queue length does an incoming req see
system.mem_ctrls1.rdQLenPdf::32                     0                       # What read queue length does an incoming req see
system.mem_ctrls1.rdQLenPdf::33                     0                       # What read queue length does an incoming req see
system.mem_ctrls1.rdQLenPdf::34                     0                       # What read queue length does an incoming req see
system.mem_ctrls1.rdQLenPdf::35                     0                       # What read queue length does an incoming req see
system.mem_ctrls1.rdQLenPdf::36                     0                       # What read queue length does an incoming req see
system.mem_ctrls1.rdQLenPdf::37                     0                       # What read queue length does an incoming req see
system.mem_ctrls1.rdQLenPdf::38                     0                       # What read queue length does an incoming req see
system.mem_ctrls1.rdQLenPdf::39                     0                       # What read queue length does an incoming req see
system.mem_ctrls1.rdQLenPdf::40                     0                       # What read queue length does an incoming req see
system.mem_ctrls1.rdQLenPdf::41                     0                       # What read queue length does an incoming req see
system.mem_ctrls1.rdQLenPdf::42                     0                       # What read queue length does an incoming req see
system.mem_ctrls1.rdQLenPdf::43                     0                       # What read queue length does an incoming req see
system.mem_ctrls1.rdQLenPdf::44                     0                       # What read queue length does an incoming req see
system.mem_ctrls1.rdQLenPdf::45                     0                       # What read queue length does an incoming req see
system.mem_ctrls1.rdQLenPdf::46                     0                       # What read queue length does an incoming req see
system.mem_ctrls1.rdQLenPdf::47                     0                       # What read queue length does an incoming req see
system.mem_ctrls1.rdQLenPdf::48                     0                       # What read queue length does an incoming req see
system.mem_ctrls1.rdQLenPdf::49                     0                       # What read queue length does an incoming req see
system.mem_ctrls1.rdQLenPdf::50                     0                       # What read queue length does an incoming req see
system.mem_ctrls1.rdQLenPdf::51                     0                       # What read queue length does an incoming req see
system.mem_ctrls1.rdQLenPdf::52                     0                       # What read queue length does an incoming req see
system.mem_ctrls1.rdQLenPdf::53                     0                       # What read queue length does an incoming req see
system.mem_ctrls1.rdQLenPdf::54                     0                       # What read queue length does an incoming req see
system.mem_ctrls1.rdQLenPdf::55                     0                       # What read queue length does an incoming req see
system.mem_ctrls1.rdQLenPdf::56                     0                       # What read queue length does an incoming req see
system.mem_ctrls1.rdQLenPdf::57                     0                       # What read queue length does an incoming req see
system.mem_ctrls1.rdQLenPdf::58                     0                       # What read queue length does an incoming req see
system.mem_ctrls1.rdQLenPdf::59                     0                       # What read queue length does an incoming req see
system.mem_ctrls1.rdQLenPdf::60                     0                       # What read queue length does an incoming req see
system.mem_ctrls1.rdQLenPdf::61                     0                       # What read queue length does an incoming req see
system.mem_ctrls1.rdQLenPdf::62                     0                       # What read queue length does an incoming req see
system.mem_ctrls1.rdQLenPdf::63                     0                       # What read queue length does an incoming req see
system.mem_ctrls1.wrQLenPdf::0                      0                       # What write queue length does an incoming req see
system.mem_ctrls1.wrQLenPdf::1                      0                       # What write queue length does an incoming req see
system.mem_ctrls1.wrQLenPdf::2                      0                       # What write queue length does an incoming req see
system.mem_ctrls1.wrQLenPdf::3                      0                       # What write queue length does an incoming req see
system.mem_ctrls1.wrQLenPdf::4                      0                       # What write queue length does an incoming req see
system.mem_ctrls1.wrQLenPdf::5                      0                       # What write queue length does an incoming req see
system.mem_ctrls1.wrQLenPdf::6                      0                       # What write queue length does an incoming req see
system.mem_ctrls1.wrQLenPdf::7                      0                       # What write queue length does an incoming req see
system.mem_ctrls1.wrQLenPdf::8                      0                       # What write queue length does an incoming req see
system.mem_ctrls1.wrQLenPdf::9                      0                       # What write queue length does an incoming req see
system.mem_ctrls1.wrQLenPdf::10                     0                       # What write queue length does an incoming req see
system.mem_ctrls1.wrQLenPdf::11                     0                       # What write queue length does an incoming req see
system.mem_ctrls1.wrQLenPdf::12                     0                       # What write queue length does an incoming req see
system.mem_ctrls1.wrQLenPdf::13                     0                       # What write queue length does an incoming req see
system.mem_ctrls1.wrQLenPdf::14                     0                       # What write queue length does an incoming req see
system.mem_ctrls1.wrQLenPdf::15                     0                       # What write queue length does an incoming req see
system.mem_ctrls1.wrQLenPdf::16                     0                       # What write queue length does an incoming req see
system.mem_ctrls1.wrQLenPdf::17                     0                       # What write queue length does an incoming req see
system.mem_ctrls1.wrQLenPdf::18                     0                       # What write queue length does an incoming req see
system.mem_ctrls1.wrQLenPdf::19                     0                       # What write queue length does an incoming req see
system.mem_ctrls1.wrQLenPdf::20                     0                       # What write queue length does an incoming req see
system.mem_ctrls1.wrQLenPdf::21                     0                       # What write queue length does an incoming req see
system.mem_ctrls1.wrQLenPdf::22                     0                       # What write queue length does an incoming req see
system.mem_ctrls1.wrQLenPdf::23                     0                       # What write queue length does an incoming req see
system.mem_ctrls1.wrQLenPdf::24                     0                       # What write queue length does an incoming req see
system.mem_ctrls1.wrQLenPdf::25                     0                       # What write queue length does an incoming req see
system.mem_ctrls1.wrQLenPdf::26                     0                       # What write queue length does an incoming req see
system.mem_ctrls1.wrQLenPdf::27                     0                       # What write queue length does an incoming req see
system.mem_ctrls1.wrQLenPdf::28                     0                       # What write queue length does an incoming req see
system.mem_ctrls1.wrQLenPdf::29                     0                       # What write queue length does an incoming req see
system.mem_ctrls1.wrQLenPdf::30                     0                       # What write queue length does an incoming req see
system.mem_ctrls1.wrQLenPdf::31                     0                       # What write queue length does an incoming req see
system.mem_ctrls1.wrQLenPdf::32                     0                       # What write queue length does an incoming req see
system.mem_ctrls1.wrQLenPdf::33                     0                       # What write queue length does an incoming req see
system.mem_ctrls1.wrQLenPdf::34                     0                       # What write queue length does an incoming req see
system.mem_ctrls1.wrQLenPdf::35                     0                       # What write queue length does an incoming req see
system.mem_ctrls1.wrQLenPdf::36                     0                       # What write queue length does an incoming req see
system.mem_ctrls1.wrQLenPdf::37                     0                       # What write queue length does an incoming req see
system.mem_ctrls1.wrQLenPdf::38                     0                       # What write queue length does an incoming req see
system.mem_ctrls1.wrQLenPdf::39                     0                       # What write queue length does an incoming req see
system.mem_ctrls1.wrQLenPdf::40                     0                       # What write queue length does an incoming req see
system.mem_ctrls1.wrQLenPdf::41                     0                       # What write queue length does an incoming req see
system.mem_ctrls1.wrQLenPdf::42                     0                       # What write queue length does an incoming req see
system.mem_ctrls1.wrQLenPdf::43                     0                       # What write queue length does an incoming req see
system.mem_ctrls1.wrQLenPdf::44                     0                       # What write queue length does an incoming req see
system.mem_ctrls1.wrQLenPdf::45                     0                       # What write queue length does an incoming req see
system.mem_ctrls1.wrQLenPdf::46                     0                       # What write queue length does an incoming req see
system.mem_ctrls1.wrQLenPdf::47                     0                       # What write queue length does an incoming req see
system.mem_ctrls1.wrQLenPdf::48                     0                       # What write queue length does an incoming req see
system.mem_ctrls1.wrQLenPdf::49                     0                       # What write queue length does an incoming req see
system.mem_ctrls1.wrQLenPdf::50                     0                       # What write queue length does an incoming req see
system.mem_ctrls1.wrQLenPdf::51                     0                       # What write queue length does an incoming req see
system.mem_ctrls1.wrQLenPdf::52                     0                       # What write queue length does an incoming req see
system.mem_ctrls1.wrQLenPdf::53                     0                       # What write queue length does an incoming req see
system.mem_ctrls1.wrQLenPdf::54                     0                       # What write queue length does an incoming req see
system.mem_ctrls1.wrQLenPdf::55                     0                       # What write queue length does an incoming req see
system.mem_ctrls1.wrQLenPdf::56                     0                       # What write queue length does an incoming req see
system.mem_ctrls1.wrQLenPdf::57                     0                       # What write queue length does an incoming req see
system.mem_ctrls1.wrQLenPdf::58                     0                       # What write queue length does an incoming req see
system.mem_ctrls1.wrQLenPdf::59                     0                       # What write queue length does an incoming req see
system.mem_ctrls1.wrQLenPdf::60                     0                       # What write queue length does an incoming req see
system.mem_ctrls1.wrQLenPdf::61                     0                       # What write queue length does an incoming req see
system.mem_ctrls1.wrQLenPdf::62                     0                       # What write queue length does an incoming req see
system.mem_ctrls1.wrQLenPdf::63                     0                       # What write queue length does an incoming req see
system.mem_ctrls1.wrQLenPdf::64                     0                       # What write queue length does an incoming req see
[...]
system.l2.ReadExReq_avg_miss_latency::.cpu.data 103681.628392                       # average ReadExReq miss latency
system.l2.ReadExReq_avg_miss_latency::total 103681.628392                       # average ReadExReq miss latency
system.l2.ReadCleanReq_avg_miss_latency::.cpu.inst 104738.575983                       # average ReadCleanReq miss latency
system.l2.ReadCleanReq_avg_miss_latency::total 104738.575983                       # average ReadCleanReq miss latency
system.l2.ReadSharedReq_avg_miss_latency::.cpu.data 113175.403226                       # average ReadSharedReq miss latency
system.l2.ReadSharedReq_avg_miss_latency::total 113175.403226                       # average ReadSharedReq miss latency
system.l2.demand_avg_miss_latency::.cpu.inst 104738.575983                       # average overall miss latency
system.l2.demand_avg_miss_latency::.cpu.data 111947.339995                       # average overall miss latency
system.l2.demand_avg_miss_latency::total 110486.649440                       # average overall miss latency
system.l2.overall_avg_miss_latency::.cpu.inst 104738.575983                       # average overall miss latency
system.l2.overall_avg_miss_latency::.cpu.data 111947.339995                       # average overall miss latency
system.l2.overall_avg_miss_latency::total 110486.649440                       # average overall miss latency
system.l2.blocked_cycles::no_mshrs                  0                       # number of cycles access was blocked
system.l2.blocked_cycles::no_targets                0                       # number of cycles access was blocked
system.l2.blocked::no_mshrs                         0                       # number of cycles access was blocked
system.l2.blocked::no_targets                       0                       # number of cycles access was blocked
system.l2.avg_blocked_cycles::no_mshrs            nan                       # average number of cycles each access was blocked
system.l2.avg_blocked_cycles::no_targets          nan                       # average number of cycles each access was blocked
system.l2.ReadExReq_mshr_hits::.cpu.data            3                       # number of ReadExReq MSHR hits
system.l2.ReadExReq_mshr_hits::total                3                       # number of ReadExReq MSHR hits
system.l2.ReadSharedReq_mshr_hits::.cpu.data           18                       # number of ReadSharedReq MSHR hits
system.l2.ReadSharedReq_mshr_hits::total           18                       # number of ReadSharedReq MSHR hits
system.l2.demand_mshr_hits::.cpu.data              21                       # number of demand (read+write) MSHR hits
system.l2.demand_mshr_hits::total                  21                       # number of demand (read+write) MSHR hits
system.l2.overall_mshr_hits::.cpu.data             21                       # number of overall MSHR hits
system.l2.overall_mshr_hits::total                 21                       # number of overall MSHR hits
system.l2.HardPFReq_mshr_misses::.l2.prefetcher         1721                       # number of HardPFReq MSHR misses
system.l2.HardPFReq_mshr_misses::total           1721                       # number of HardPFReq MSHR misses
system.l2.ReadExReq_mshr_misses::.cpu.data          476                       # number of ReadExReq MSHR misses
system.l2.ReadExReq_mshr_misses::total            476                       # number of ReadExReq MSHR misses
system.l2.ReadCleanReq_mshr_misses::.cpu.inst          941                       # number of ReadCleanReq MSHR misses
system.l2.ReadCleanReq_mshr_misses::total          941                       # number of ReadCleanReq MSHR misses
system.l2.ReadSharedReq_mshr_misses::.cpu.data         3206                       # number of ReadSharedReq MSHR misses
system.l2.ReadSharedReq_mshr_misses::total         3206                       # number of ReadSharedReq MSHR misses
system.l2.demand_mshr_misses::.cpu.inst           941                       # number of demand (read+write) MSHR misses
system.l2.demand_mshr_misses::.cpu.data          3682                       # number of demand (read+write) MSHR misses
system.l2.demand_mshr_misses::total              4623                       # number of demand (read+write) MSHR misses
system.l2.overall_mshr_misses::.cpu.inst          941                       # number of overall MSHR misses
system.l2.overall_mshr_misses::.cpu.data         3682                       # number of overall MSHR misses
system.l2.overall_mshr_misses::.l2.prefetcher         1721                       # number of overall MSHR misses
system.l2.overall_mshr_misses::total             6344                       # number of overall MSHR misses
system.l2.HardPFReq_mshr_miss_latency::.l2.prefetcher    107022264                       # number of HardPFReq MSHR miss cycles
system.l2.HardPFReq_mshr_miss_latency::total    107022264                       # number of HardPFReq MSHR miss cycles
system.l2.ReadExReq_mshr_miss_latency::.cpu.data     39329000                       # number of ReadExReq MSHR miss cycles
system.l2.ReadExReq_mshr_miss_latency::total     39329000                       # number of ReadExReq MSHR miss cycles
system.l2.ReadCleanReq_mshr_miss_latency::.cpu.inst     78798000                       # number of ReadCleanReq MSHR miss cycles
system.l2.ReadCleanReq_mshr_miss_latency::total     78798000                       # number of ReadCleanReq MSHR miss cycles
system.l2.ReadSharedReq_mshr_miss_latency::.cpu.data    296393000                       # number of ReadSharedReq MSHR miss cycles
system.l2.ReadSharedReq_mshr_miss_latency::total    296393000                       # number of ReadSharedReq MSHR miss cycles
system.l2.demand_mshr_miss_latency::.cpu.inst     78798000                       # number of demand (read+write) MSHR miss cycles
system.l2.demand_mshr_miss_latency::.cpu.data    335722000                       # number of demand (read+write) MSHR miss cycles
system.l2.demand_mshr_miss_latency::total    414520000                       # number of demand (read+write) MSHR miss cycles
system.l2.overall_mshr_miss_latency::.cpu.inst     78798000                       # number of overall MSHR miss cycles
system.l2.overall_mshr_miss_latency::.cpu.data    335722000                       # number of overall MSHR miss cycles
system.l2.overall_mshr_miss_latency::.l2.prefetcher    107022264                       # number of overall MSHR miss cycles
system.l2.overall_mshr_miss_latency::total    521542264                       # number of overall MSHR miss cycles
system.l2.HardPFReq_mshr_miss_rate::.l2.prefetcher          inf                       # mshr miss rate for HardPFReq accesses
system.l2.HardPFReq_mshr_miss_rate::total          inf                       # mshr miss rate for HardPFReq accesses
system.l2.ReadExReq_mshr_miss_rate::.cpu.data     0.360606                       # mshr miss rate for ReadExReq accesses
system.l2.ReadExReq_mshr_miss_rate::total     0.360606                       # mshr miss rate for ReadExReq accesses
system.l2.ReadCleanReq_mshr_miss_rate::.cpu.inst     0.839429                       # mshr miss rate for ReadCleanReq accesses
system.l2.ReadCleanReq_mshr_miss_rate::total     0.839429                       # mshr miss rate for ReadCleanReq accesses
system.l2.ReadSharedReq_mshr_miss_rate::.cpu.data     0.667917                       # mshr miss rate for ReadSharedReq accesses
system.l2.ReadSharedReq_mshr_miss_rate::total     0.667917                       # mshr miss rate for ReadSharedReq accesses
system.l2.demand_mshr_miss_rate::.cpu.inst     0.839429                       # mshr miss rate for demand accesses
system.l2.demand_mshr_miss_rate::.cpu.data     0.601634                       # mshr miss rate for demand accesses
system.l2.demand_mshr_miss_rate::total       0.638448                       # mshr miss rate for demand accesses
system.l2.overall_mshr_miss_rate::.cpu.inst     0.839429                       # mshr miss rate for overall accesses
system.l2.overall_mshr_miss_rate::.cpu.data     0.601634                       # mshr miss rate for overall accesses
system.l2.overall_mshr_miss_rate::.l2.prefetcher          inf                       # mshr miss rate for overall accesses
system.l2.overall_mshr_miss_rate::total      0.876122                       # mshr miss rate for overall accesses
system.l2.HardPFReq_avg_mshr_miss_latency::.l2.prefetcher 62186.091807                       # average HardPFReq mshr miss latency
system.l2.HardPFReq_avg_mshr_miss_latency::total 62186.091807                       # average HardPFReq mshr miss latency
system.l2.ReadExReq_avg_mshr_miss_latency::.cpu.data 82623.949580                       # average ReadExReq mshr miss latency
system.l2.ReadExReq_avg_mshr_miss_latency::total 82623.949580                       # average ReadExReq mshr miss latency
system.l2.ReadCleanReq_avg_mshr_miss_latency::.cpu.inst 83738.575983                       # average ReadCleanReq mshr miss latency
system.l2.ReadCleanReq_avg_mshr_miss_latency::total 83738.575983                       # average ReadCleanReq mshr miss latency
system.l2.ReadSharedReq_avg_mshr_miss_latency::.cpu.data 92449.469744                       # average ReadSharedReq mshr miss latency
system.l2.ReadSharedReq_avg_mshr_miss_latency::total 92449.469744                       # average ReadSharedReq mshr miss latency
system.l2.demand_avg_mshr_miss_latency::.cpu.inst 83738.575983                       # average overall mshr miss latency
system.l2.demand_avg_mshr_miss_latency::.cpu.data 91179.250407                       # average overall mshr miss latency
system.l2.demand_avg_mshr_miss_latency::total 89664.719879                       # average overall mshr miss latency
system.l2.overall_avg_mshr_miss_latency::.cpu.inst 83738.575983                       # average overall mshr miss latency
system.l2.overall_avg_mshr_miss_latency::.cpu.data 91179.250407                       # average overall mshr miss latency
system.l2.overall_avg_mshr_miss_latency::.l2.prefetcher 62186.091807                       # average overall mshr miss latency
system.l2.overall_avg_mshr_miss_latency::total 82210.319042                       # average overall mshr miss latency
system.l2.replacements                              0                       # number of replacements
system.membus.snoop_filter.tot_requests          6131                       # Total number of requests made to the snoop filter.
system.membus.snoop_filter.hit_single_requests            3                       # Number of requests hitting in the snoop filter with a single holder of the requested data.
system.membus.snoop_filter.hit_multi_requests            0                       # Number of requests hitting in the snoop filter with multiple (>1) holders of the requested data.
system.membus.snoop_filter.tot_snoops               0                       # Total number of snoops made to the snoop filter.
system.membus.snoop_filter.hit_single_snoops            0                       # Number of snoops hitting in the snoop filter with a single holder of the requested data.
system.membus.snoop_filter.hit_multi_snoops            0                       # Number of snoops hitting in the snoop filter with multiple (>1) holders of the requested data.
system.membus.pwrStateResidencyTicks::UNDEFINED    718604500                       # Cumulative time (in ticks) in various power states
system.membus.trans_dist::ReadResp               5655                       # Transaction distribution
system.membus.trans_dist::ReadExReq               476                       # Transaction distribution
system.membus.trans_dist::ReadExResp              476                       # Transaction distribution
system.membus.trans_dist::ReadCleanReq           5655                       # Transaction distribution
system.membus.pkt_count_system.l2.mem_side::system.mem_ctrls0.port         6120                       # Packet count per connected master and slave (bytes)
system.membus.pkt_count_system.l2.mem_side::system.mem_ctrls1.port         6142                       # Packet count per connected master and slave (bytes)
system.membus.pkt_count_system.l2.mem_side::total        12262                       # Packet count per connected master and slave (bytes)
system.membus.pkt_count::total                  12262                       # Packet count per connected master and slave (bytes)
system.membus.pkt_size_system.l2.mem_side::system.mem_ctrls0.port       195840                       # Cumulative packet size per connected master and slave (bytes)
system.membus.pkt_size_system.l2.mem_side::system.mem_ctrls1.port       196544                       # Cumulative packet size per connected master and slave (bytes)
system.membus.pkt_size_system.l2.mem_side::total       392384                       # Cumulative packet size per connected master and slave (bytes)
system.membus.pkt_size::total                  392384                       # Cumulative packet size per connected master and slave (bytes)
system.membus.snoops                                0                       # Total snoops (count)
system.membus.snoopTraffic                          0                       # Total snoop traffic (bytes)
system.membus.snoop_fanout::samples              6131                       # Request fanout histogram
system.membus.snoop_fanout::mean                    0                       # Request fanout histogram
system.membus.snoop_fanout::stdev                   0                       # Request fanout histogram
system.membus.snoop_fanout::underflows              0      0.00%      0.00% # Request fanout histogram
system.membus.snoop_fanout::0                    6131    100.00%    100.00% # Request fanout histogram
system.membus.snoop_fanout::1                       0      0.00%    100.00% # Request fanout histogram
system.membus.snoop_fanout::overflows               0      0.00%    100.00% # Request fanout histogram
system.membus.snoop_fanout::min_value               0                       # Request fanout histogram
system.membus.snoop_fanout::max_value               0                       # Request fanout histogram
system.membus.snoop_fanout::total                6131                       # Request fanout histogram
system.membus.reqLayer2.occupancy             4027594                       # Layer occupancy (ticks)
system.membus.reqLayer2.utilization               0.6                       # Layer utilization (%)
system.membus.reqLayer3.occupancy             4027123                       # Layer occupancy (ticks)
system.membus.reqLayer3.utilization               0.6                       # Layer utilization (%)
system.membus.respLayer1.occupancy           32868077                       # Layer occupancy (ticks)
system.membus.respLayer1.utilization              4.6                       # Layer utilization (%)
system.tol2bus.snoop_filter.tot_requests        12960                       # Total number of requests made to the snoop filter.
system.tol2bus.snoop_filter.hit_single_requests         5719                       # Number of requests hitting in the snoop filter with a single holder of the requested data.
system.tol2bus.snoop_filter.hit_multi_requests            3                       # Number of requests hitting in the snoop filter with multiple (>1) holders of the requested data.
system.tol2bus.snoop_filter.tot_snoops            213                       # Total number of snoops made to the snoop filter.
system.tol2bus.snoop_filter.hit_single_snoops          213                       # Number of snoops hitting in the snoop filter with a single holder of the requested data.
system.tol2bus.snoop_filter.hit_multi_snoops            0                       # Number of snoops hitting in the snoop filter with multiple (>1) holders of the requested data.
system.tol2bus.pwrStateResidencyTicks::UNDEFINED    718604500                       # Cumulative time (in ticks) in various power states
system.tol2bus.trans_dist::ReadResp              5921                       # Transaction distribution
system.tol2bus.trans_dist::WritebackDirty         1412                       # Transaction distribution
system.tol2bus.trans_dist::WritebackClean         4307                       # Transaction distribution
system.tol2bus.trans_dist::HardPFReq             2109                       # Transaction distribution
system.tol2bus.trans_dist::ReadExReq             1320                       # Transaction distribution
system.tol2bus.trans_dist::ReadExResp            1320                       # Transaction distribution
system.tol2bus.trans_dist::ReadCleanReq          1121                       # Transaction distribution
system.tol2bus.trans_dist::ReadSharedReq         4800                       # Transaction distribution
system.tol2bus.pkt_count_system.cpu.icache.mem_side::system.l2.cpu_side         2865                       # Packet count per connected master and slave (bytes)
system.tol2bus.pkt_count_system.cpu.dcache.mem_side::system.l2.cpu_side        17336                       # Packet count per connected master and slave (bytes)
system.tol2bus.pkt_count::total                 20201                       # Packet count per connected master and slave (bytes)
system.tol2bus.pkt_size_system.cpu.icache.mem_side::system.l2.cpu_side       111616                       # Cumulative packet size per connected master and slave (bytes)
system.tol2bus.pkt_size_system.cpu.dcache.mem_side::system.l2.cpu_side       717824                       # Cumulative packet size per connected master and slave (bytes)
system.tol2bus.pkt_size::total                 829440                       # Cumulative packet size per connected master and slave (bytes)
system.tol2bus.snoops                            2109                       # Total snoops (count)
system.tol2bus.snoopTraffic                         0                       # Total snoop traffic (bytes)
system.tol2bus.snoop_fanout::samples             9350                       # Request fanout histogram
system.tol2bus.snoop_fanout::mean            0.023102                       # Request fanout histogram
system.tol2bus.snoop_fanout::stdev           0.150234                       # Request fanout histogram
system.tol2bus.snoop_fanout::underflows             0      0.00%      0.00% # Request fanout histogram
system.tol2bus.snoop_fanout::0                   9134     97.69%     97.69% # Request fanout histogram
system.tol2bus.snoop_fanout::1                    216      2.31%    100.00% # Request fanout histogram
system.tol2bus.snoop_fanout::2                      0      0.00%    100.00% # Request fanout histogram
system.tol2bus.snoop_fanout::3                      0      0.00%    100.00% # Request fanout histogram
system.tol2bus.snoop_fanout::4                      0      0.00%    100.00% # Request fanout histogram
system.tol2bus.snoop_fanout::overflows              0      0.00%    100.00% # Request fanout histogram
system.tol2bus.snoop_fanout::min_value              0                       # Request fanout histogram
system.tol2bus.snoop_fanout::max_value              1                       # Request fanout histogram
system.tol2bus.snoop_fanout::total               9350                       # Request fanout histogram
system.tol2bus.reqLayer0.occupancy           12199000                       # Layer occupancy (ticks)
system.tol2bus.reqLayer0.utilization              1.7                       # Layer utilization (%)
system.tol2bus.respLayer0.occupancy           1681500                       # Layer occupancy (ticks)
system.tol2bus.respLayer0.utilization             0.2                       # Layer utilization (%)
system.tol2bus.respLayer1.occupancy           9180499                       # Layer occupancy (ticks)
system.tol2bus.respLayer1.utilization             1.3                       # Layer utilization (%)

---------- End Simulation Statistics   ----------
